* NGSPICE file created from user_analog_project_wrapper.ext - technology: sky130A

.subckt sky130_fd_pr__nfet_g5v0d10v5$1$3 a_700_n50# a_n892_n272# a_n758_n50# a_n700_n138#
X0 a_700_n50# a_n700_n138# a_n758_n50# a_n892_n272# sky130_fd_pr__nfet_g5v0d10v5 ad=1.45e+11p pd=1.58e+06u as=1.45e+11p ps=1.58e+06u w=500000u l=7e+06u
.ends

.subckt w50_l700_nmos$2 sky130_fd_pr__nfet_g5v0d10v5$1$3_0/a_700_n50# sky130_fd_pr__nfet_g5v0d10v5$1$3_0/a_n758_n50#
+ sky130_fd_pr__nfet_g5v0d10v5$1$3_0/a_n700_n138# VSUBS
Xsky130_fd_pr__nfet_g5v0d10v5$1$3_0 sky130_fd_pr__nfet_g5v0d10v5$1$3_0/a_700_n50#
+ VSUBS sky130_fd_pr__nfet_g5v0d10v5$1$3_0/a_n758_n50# sky130_fd_pr__nfet_g5v0d10v5$1$3_0/a_n700_n138#
+ sky130_fd_pr__nfet_g5v0d10v5$1$3
.ends

.subckt x1T1R_w50_l700_nmos$1 B D DIODE RRAM$1$1_0/VSUBS
Xw50_l700_nmos$2_0 RRAM$1$1_0/TE m1_n18719_n21593# w_5419_n25463# RRAM$1$1_0/VSUBS
+ w50_l700_nmos$2
D0 RRAM$1$1_0/VSUBS w_5419_n25463# sky130_fd_pr__diode_pd2nw_05v5 pj=1.8e+06u area=2.025e+11p
.ends

.subckt sky130_fd_pr__nfet_g5v0d10v5$2$1 a_n500_n138# a_500_n50# a_n692_n272# a_n558_n50#
X0 a_500_n50# a_n500_n138# a_n558_n50# a_n692_n272# sky130_fd_pr__nfet_g5v0d10v5 ad=1.45e+11p pd=1.58e+06u as=1.45e+11p ps=1.58e+06u w=500000u l=5e+06u
.ends

.subckt w50_l500_nmos$2 sky130_fd_pr__nfet_g5v0d10v5$2$1_0/a_n558_n50# sky130_fd_pr__nfet_g5v0d10v5$2$1_0/a_n500_n138#
+ sky130_fd_pr__nfet_g5v0d10v5$2$1_0/a_500_n50# VSUBS
Xsky130_fd_pr__nfet_g5v0d10v5$2$1_0 sky130_fd_pr__nfet_g5v0d10v5$2$1_0/a_n500_n138#
+ sky130_fd_pr__nfet_g5v0d10v5$2$1_0/a_500_n50# VSUBS sky130_fd_pr__nfet_g5v0d10v5$2$1_0/a_n558_n50#
+ sky130_fd_pr__nfet_g5v0d10v5$2$1
.ends

.subckt x1T1R_w50_l500_nmos$1 B D DIODE RRAM$2$1_0/VSUBS
Xw50_l500_nmos$2_0 m1_n18719_n21695# w_5419_n25463# RRAM$2$1_0/TE RRAM$2$1_0/VSUBS
+ w50_l500_nmos$2
D0 RRAM$2$1_0/VSUBS w_5419_n25463# sky130_fd_pr__diode_pd2nw_05v5 pj=1.8e+06u area=2.025e+11p
.ends

.subckt sky130_fd_pr__pfet_g5v0d10v5$3$1 a_1000_n50# w_n1258_n347# a_n1000_n147# a_n1058_n50#
X0 a_1000_n50# a_n1000_n147# a_n1058_n50# w_n1258_n347# sky130_fd_pr__pfet_g5v0d10v5 ad=1.45e+11p pd=1.58e+06u as=1.45e+11p ps=1.58e+06u w=500000u l=1e+07u
.ends

.subckt w50_l1000_pmos$2 sky130_fd_pr__pfet_g5v0d10v5$3$1_0/a_n1058_n50# sky130_fd_pr__pfet_g5v0d10v5$3$1_0/a_1000_n50#
+ sky130_fd_pr__pfet_g5v0d10v5$3$1_0/w_n1258_n347# sky130_fd_pr__pfet_g5v0d10v5$3$1_0/a_n1000_n147#
Xsky130_fd_pr__pfet_g5v0d10v5$3$1_0 sky130_fd_pr__pfet_g5v0d10v5$3$1_0/a_1000_n50#
+ sky130_fd_pr__pfet_g5v0d10v5$3$1_0/w_n1258_n347# sky130_fd_pr__pfet_g5v0d10v5$3$1_0/a_n1000_n147#
+ sky130_fd_pr__pfet_g5v0d10v5$3$1_0/a_n1058_n50# sky130_fd_pr__pfet_g5v0d10v5$3$1
.ends

.subckt x1T1R_w50_l1000_pmos$1 B D DIODE
Xw50_l1000_pmos$2_0 RRAM$10$1_0/TE D li_n19119_n22791# w_5419_n25463# w50_l1000_pmos$2
D0 RRAM$10$1_0/VSUBS w_5419_n25463# sky130_fd_pr__diode_pd2nw_05v5 pj=1.8e+06u area=2.025e+11p
.ends

.subckt sky130_fd_pr__pfet_g5v0d10v5$2$1 a_700_n50# a_n700_n147# a_n758_n50# w_n958_n347#
X0 a_700_n50# a_n700_n147# a_n758_n50# w_n958_n347# sky130_fd_pr__pfet_g5v0d10v5 ad=1.45e+11p pd=1.58e+06u as=1.45e+11p ps=1.58e+06u w=500000u l=7e+06u
.ends

.subckt w50_l700_pmos$2 sky130_fd_pr__pfet_g5v0d10v5$2$1_0/w_n958_n347# sky130_fd_pr__pfet_g5v0d10v5$2$1_0/a_700_n50#
+ sky130_fd_pr__pfet_g5v0d10v5$2$1_0/a_n758_n50# sky130_fd_pr__pfet_g5v0d10v5$2$1_0/a_n700_n147#
Xsky130_fd_pr__pfet_g5v0d10v5$2$1_0 sky130_fd_pr__pfet_g5v0d10v5$2$1_0/a_700_n50#
+ sky130_fd_pr__pfet_g5v0d10v5$2$1_0/a_n700_n147# sky130_fd_pr__pfet_g5v0d10v5$2$1_0/a_n758_n50#
+ sky130_fd_pr__pfet_g5v0d10v5$2$1_0/w_n958_n347# sky130_fd_pr__pfet_g5v0d10v5$2$1
.ends

.subckt x1T1R_w50_l700_pmos$1 B D DIODE
Xw50_l700_pmos$2_0 li_n19119_n22791# D RRAM$9$1_0/TE w_5419_n25463# w50_l700_pmos$2
D0 RRAM$9$1_0/VSUBS w_5419_n25463# sky130_fd_pr__diode_pd2nw_05v5 pj=1.8e+06u area=2.025e+11p
.ends

.subckt sky130_fd_pr__nfet_g5v0d10v5$3$1 a_n492_n272# a_n358_n50# a_300_n50# a_n300_n138#
X0 a_300_n50# a_n300_n138# a_n358_n50# a_n492_n272# sky130_fd_pr__nfet_g5v0d10v5 ad=1.45e+11p pd=1.58e+06u as=1.45e+11p ps=1.58e+06u w=500000u l=3e+06u
.ends

.subckt w50_l300_nmos$2 sky130_fd_pr__nfet_g5v0d10v5$3$1_0/a_300_n50# sky130_fd_pr__nfet_g5v0d10v5$3$1_0/a_n358_n50#
+ sky130_fd_pr__nfet_g5v0d10v5$3$1_0/a_n300_n138# VSUBS
Xsky130_fd_pr__nfet_g5v0d10v5$3$1_0 VSUBS sky130_fd_pr__nfet_g5v0d10v5$3$1_0/a_n358_n50#
+ sky130_fd_pr__nfet_g5v0d10v5$3$1_0/a_300_n50# sky130_fd_pr__nfet_g5v0d10v5$3$1_0/a_n300_n138#
+ sky130_fd_pr__nfet_g5v0d10v5$3$1
.ends

.subckt x1T1R_w50_l300_nmos$1 B D DIODE RRAM$3$1_0/VSUBS
Xw50_l300_nmos$2_0 RRAM$3$1_0/TE m1_n18719_n21895# w_5419_n25463# RRAM$3$1_0/VSUBS
+ w50_l300_nmos$2
D0 RRAM$3$1_0/VSUBS w_5419_n25463# sky130_fd_pr__diode_pd2nw_05v5 pj=1.8e+06u area=2.025e+11p
.ends

.subckt sky130_fd_pr__nfet_g5v0d10v5$1$2$1 a_n1000_n138# a_n1192_n272# a_n1058_n50#
X0 a_1000_n50# a_n1000_n138# a_n1058_n50# a_n1192_n272# sky130_fd_pr__nfet_g5v0d10v5 ad=1.45e+11p pd=1.58e+06u as=1.45e+11p ps=1.58e+06u w=500000u l=1e+07u
.ends

.subckt w50_l1000_nmos$1$1 sky130_fd_pr__nfet_g5v0d10v5$1$2$1_0/a_n1000_n138# sky130_fd_pr__nfet_g5v0d10v5$1$2$1_0/a_n1058_n50#
+ VSUBS
Xsky130_fd_pr__nfet_g5v0d10v5$1$2$1_0 sky130_fd_pr__nfet_g5v0d10v5$1$2$1_0/a_n1000_n138#
+ VSUBS sky130_fd_pr__nfet_g5v0d10v5$1$2$1_0/a_n1058_n50# sky130_fd_pr__nfet_g5v0d10v5$1$2$1
.ends

.subckt sky130_fd_pr__pfet_g5v0d10v5$1$3$1 a_1000_n50# w_n1258_n347# a_n1000_n147#
+ a_n1058_n50#
X0 a_1000_n50# a_n1000_n147# a_n1058_n50# w_n1258_n347# sky130_fd_pr__pfet_g5v0d10v5 ad=1.45e+11p pd=1.58e+06u as=1.45e+11p ps=1.58e+06u w=500000u l=1e+07u
.ends

.subckt w50_l1000_pmos$1$1 sky130_fd_pr__pfet_g5v0d10v5$1$3$1_0/w_n1258_n347# sky130_fd_pr__pfet_g5v0d10v5$1$3$1_0/a_1000_n50#
+ sky130_fd_pr__pfet_g5v0d10v5$1$3$1_0/a_n1000_n147# sky130_fd_pr__pfet_g5v0d10v5$1$3$1_0/a_n1058_n50#
Xsky130_fd_pr__pfet_g5v0d10v5$1$3$1_0 sky130_fd_pr__pfet_g5v0d10v5$1$3$1_0/a_1000_n50#
+ sky130_fd_pr__pfet_g5v0d10v5$1$3$1_0/w_n1258_n347# sky130_fd_pr__pfet_g5v0d10v5$1$3$1_0/a_n1000_n147#
+ sky130_fd_pr__pfet_g5v0d10v5$1$3$1_0/a_n1058_n50# sky130_fd_pr__pfet_g5v0d10v5$1$3$1
.ends

.subckt x2T1R_w50_l1000$1 G_n G_p DIODE_p DIODE_n B_n B_p D RRAM$4$5$1_0/VSUBS
Xw50_l1000_nmos$1$1_0 w_5419_n25463# m1_n18719_n20953# RRAM$4$5$1_0/VSUBS w50_l1000_nmos$1$1
Xw50_l1000_pmos$1$1_0 li_n19119_n18569# m1_n18719_n20953# w_41419_n25463# RRAM$4$5$1_0/TE
+ w50_l1000_pmos$1$1
D0 RRAM$4$5$1_0/VSUBS w_41419_n25463# sky130_fd_pr__diode_pd2nw_05v5 pj=1.8e+06u area=2.025e+11p
D1 RRAM$4$5$1_0/VSUBS w_5419_n25463# sky130_fd_pr__diode_pd2nw_05v5 pj=1.8e+06u area=2.025e+11p
.ends

.subckt sky130_fd_pr__pfet_g5v0d10v5$1$1$1 w_n758_n347# a_500_n50# a_n500_n147# a_n558_n50#
X0 a_500_n50# a_n500_n147# a_n558_n50# w_n758_n347# sky130_fd_pr__pfet_g5v0d10v5 ad=1.45e+11p pd=1.58e+06u as=1.45e+11p ps=1.58e+06u w=500000u l=5e+06u
.ends

.subckt w50_l500_pmos$2 sky130_fd_pr__pfet_g5v0d10v5$1$1$1_0/a_n500_n147# sky130_fd_pr__pfet_g5v0d10v5$1$1$1_0/a_500_n50#
+ sky130_fd_pr__pfet_g5v0d10v5$1$1$1_0/w_n758_n347# sky130_fd_pr__pfet_g5v0d10v5$1$1$1_0/a_n558_n50#
Xsky130_fd_pr__pfet_g5v0d10v5$1$1$1_0 sky130_fd_pr__pfet_g5v0d10v5$1$1$1_0/w_n758_n347#
+ sky130_fd_pr__pfet_g5v0d10v5$1$1$1_0/a_500_n50# sky130_fd_pr__pfet_g5v0d10v5$1$1$1_0/a_n500_n147#
+ sky130_fd_pr__pfet_g5v0d10v5$1$1$1_0/a_n558_n50# sky130_fd_pr__pfet_g5v0d10v5$1$1$1
.ends

.subckt x1T1R_w50_l500_pmos$1 B D DIODE
Xw50_l500_pmos$2_0 w_5419_n25463# D li_n19119_n22791# RRAM$8$1_0/TE w50_l500_pmos$2
D0 RRAM$8$1_0/VSUBS w_5419_n25463# sky130_fd_pr__diode_pd2nw_05v5 pj=1.8e+06u area=2.025e+11p
.ends

.subckt sky130_fd_pr__nfet_g5v0d10v5$4$2 a_100_n50# a_n100_n138# a_n158_n50# a_n292_n272#
X0 a_100_n50# a_n100_n138# a_n158_n50# a_n292_n272# sky130_fd_pr__nfet_g5v0d10v5 ad=1.45e+11p pd=1.58e+06u as=1.45e+11p ps=1.58e+06u w=500000u l=1e+06u
.ends

.subckt w50_l100_nmos$2 sky130_fd_pr__nfet_g5v0d10v5$4$2_0/a_100_n50# sky130_fd_pr__nfet_g5v0d10v5$4$2_0/a_n100_n138#
+ sky130_fd_pr__nfet_g5v0d10v5$4$2_0/a_n158_n50# VSUBS
Xsky130_fd_pr__nfet_g5v0d10v5$4$2_0 sky130_fd_pr__nfet_g5v0d10v5$4$2_0/a_100_n50#
+ sky130_fd_pr__nfet_g5v0d10v5$4$2_0/a_n100_n138# sky130_fd_pr__nfet_g5v0d10v5$4$2_0/a_n158_n50#
+ VSUBS sky130_fd_pr__nfet_g5v0d10v5$4$2
.ends

.subckt x1T1R_w50_l100_nmos$1 B D DIODE RRAM$4$6_0/VSUBS
Xw50_l100_nmos$2_0 RRAM$4$6_0/TE w_5419_n25463# m1_n18719_n22101# RRAM$4$6_0/VSUBS
+ w50_l100_nmos$2
D0 RRAM$4$6_0/VSUBS w_5419_n25463# sky130_fd_pr__diode_pd2nw_05v5 pj=1.8e+06u area=2.025e+11p
.ends

.subckt sky130_fd_pr__nfet_g5v0d10v5$6$1 a_700_n50# a_n892_n272# a_n758_n50# a_n700_n138#
X0 a_700_n50# a_n700_n138# a_n758_n50# a_n892_n272# sky130_fd_pr__nfet_g5v0d10v5 ad=1.45e+11p pd=1.58e+06u as=1.45e+11p ps=1.58e+06u w=500000u l=7e+06u
.ends

.subckt w50_l700_nmos$1$1 sky130_fd_pr__nfet_g5v0d10v5$6$1_0/a_n758_n50# sky130_fd_pr__nfet_g5v0d10v5$6$1_0/a_700_n50#
+ sky130_fd_pr__nfet_g5v0d10v5$6$1_0/a_n700_n138# VSUBS
Xsky130_fd_pr__nfet_g5v0d10v5$6$1_0 sky130_fd_pr__nfet_g5v0d10v5$6$1_0/a_700_n50#
+ VSUBS sky130_fd_pr__nfet_g5v0d10v5$6$1_0/a_n758_n50# sky130_fd_pr__nfet_g5v0d10v5$6$1_0/a_n700_n138#
+ sky130_fd_pr__nfet_g5v0d10v5$6$1
.ends

.subckt sky130_fd_pr__pfet_g5v0d10v5$5$1 a_700_n50# a_n700_n147# a_n758_n50# w_n958_n347#
X0 a_700_n50# a_n700_n147# a_n758_n50# w_n958_n347# sky130_fd_pr__pfet_g5v0d10v5 ad=1.45e+11p pd=1.58e+06u as=1.45e+11p ps=1.58e+06u w=500000u l=7e+06u
.ends

.subckt w50_l700_pmos$1$1 sky130_fd_pr__pfet_g5v0d10v5$5$1_0/a_700_n50# sky130_fd_pr__pfet_g5v0d10v5$5$1_0/a_n758_n50#
+ sky130_fd_pr__pfet_g5v0d10v5$5$1_0/a_n700_n147# sky130_fd_pr__pfet_g5v0d10v5$5$1_0/w_n958_n347#
Xsky130_fd_pr__pfet_g5v0d10v5$5$1_0 sky130_fd_pr__pfet_g5v0d10v5$5$1_0/a_700_n50#
+ sky130_fd_pr__pfet_g5v0d10v5$5$1_0/a_n700_n147# sky130_fd_pr__pfet_g5v0d10v5$5$1_0/a_n758_n50#
+ sky130_fd_pr__pfet_g5v0d10v5$5$1_0/w_n958_n347# sky130_fd_pr__pfet_g5v0d10v5$5$1
.ends

.subckt x2T1R_w50_l700$1 G_n G_p DIODE_p DIODE_n B_n B_p D RRAM$4$4$1_0/VSUBS
Xw50_l700_nmos$1$1_0 m1_n18719_n21684# RRAM$4$4$1_0/TE w_5419_n25463# RRAM$4$4$1_0/VSUBS
+ w50_l700_nmos$1$1
Xw50_l700_pmos$1$1_0 m1_n18719_n21684# RRAM$4$4$1_0/TE w_41419_n25463# li_n19119_n20024#
+ w50_l700_pmos$1$1
D0 RRAM$4$4$1_0/VSUBS w_41419_n25463# sky130_fd_pr__diode_pd2nw_05v5 pj=1.8e+06u area=2.025e+11p
D1 RRAM$4$4$1_0/VSUBS w_5419_n25463# sky130_fd_pr__diode_pd2nw_05v5 pj=1.8e+06u area=2.025e+11p
.ends

.subckt sky130_fd_pr__nfet_g5v0d10v5$1$1$1 a_n500_n138# a_500_n50# a_n692_n272# a_n558_n50#
X0 a_500_n50# a_n500_n138# a_n558_n50# a_n692_n272# sky130_fd_pr__nfet_g5v0d10v5 ad=1.45e+11p pd=1.58e+06u as=1.45e+11p ps=1.58e+06u w=500000u l=5e+06u
.ends

.subckt w50_l500_nmos$1$1 sky130_fd_pr__nfet_g5v0d10v5$1$1$1_0/a_n558_n50# sky130_fd_pr__nfet_g5v0d10v5$1$1$1_0/a_500_n50#
+ sky130_fd_pr__nfet_g5v0d10v5$1$1$1_0/a_n500_n138# VSUBS
Xsky130_fd_pr__nfet_g5v0d10v5$1$1$1_0 sky130_fd_pr__nfet_g5v0d10v5$1$1$1_0/a_n500_n138#
+ sky130_fd_pr__nfet_g5v0d10v5$1$1$1_0/a_500_n50# VSUBS sky130_fd_pr__nfet_g5v0d10v5$1$1$1_0/a_n558_n50#
+ sky130_fd_pr__nfet_g5v0d10v5$1$1$1
.ends

.subckt sky130_fd_pr__pfet_g5v0d10v5$1$2$1 w_n758_n347# a_500_n50# a_n500_n147# a_n558_n50#
X0 a_500_n50# a_n500_n147# a_n558_n50# w_n758_n347# sky130_fd_pr__pfet_g5v0d10v5 ad=1.45e+11p pd=1.58e+06u as=1.45e+11p ps=1.58e+06u w=500000u l=5e+06u
.ends

.subckt w50_l500_pmos$1$1 sky130_fd_pr__pfet_g5v0d10v5$1$2$1_0/a_500_n50# sky130_fd_pr__pfet_g5v0d10v5$1$2$1_0/a_n500_n147#
+ sky130_fd_pr__pfet_g5v0d10v5$1$2$1_0/a_n558_n50# sky130_fd_pr__pfet_g5v0d10v5$1$2$1_0/w_n758_n347#
Xsky130_fd_pr__pfet_g5v0d10v5$1$2$1_0 sky130_fd_pr__pfet_g5v0d10v5$1$2$1_0/w_n758_n347#
+ sky130_fd_pr__pfet_g5v0d10v5$1$2$1_0/a_500_n50# sky130_fd_pr__pfet_g5v0d10v5$1$2$1_0/a_n500_n147#
+ sky130_fd_pr__pfet_g5v0d10v5$1$2$1_0/a_n558_n50# sky130_fd_pr__pfet_g5v0d10v5$1$2$1
.ends

.subckt x2T1R_w50_l500$1 G_n G_p DIODE_p DIODE_n B_n B_p D RRAM$4$3$1_0/VSUBS
Xw50_l500_nmos$1$1_0 m1_n18719_n21803# RRAM$4$3$1_0/TE w_5419_n25463# RRAM$4$3$1_0/VSUBS
+ w50_l500_nmos$1$1
Xw50_l500_pmos$1$1_0 m1_n18719_n21803# w_41419_n25463# RRAM$4$3$1_0/TE li_n19119_n20673#
+ w50_l500_pmos$1$1
D0 RRAM$4$3$1_0/VSUBS w_41419_n25463# sky130_fd_pr__diode_pd2nw_05v5 pj=1.8e+06u area=2.025e+11p
D1 RRAM$4$3$1_0/VSUBS w_5419_n25463# sky130_fd_pr__diode_pd2nw_05v5 pj=1.8e+06u area=2.025e+11p
.ends

.subckt sky130_fd_pr__pfet_g5v0d10v5$1$4 a_n358_n50# a_n300_n147# w_n558_n347# a_300_n50#
X0 a_300_n50# a_n300_n147# a_n358_n50# w_n558_n347# sky130_fd_pr__pfet_g5v0d10v5 ad=1.45e+11p pd=1.58e+06u as=1.45e+11p ps=1.58e+06u w=500000u l=3e+06u
.ends

.subckt w50_l300_pmos$2 sky130_fd_pr__pfet_g5v0d10v5$1$4_0/a_n300_n147# sky130_fd_pr__pfet_g5v0d10v5$1$4_0/a_300_n50#
+ sky130_fd_pr__pfet_g5v0d10v5$1$4_0/w_n558_n347# sky130_fd_pr__pfet_g5v0d10v5$1$4_0/a_n358_n50#
Xsky130_fd_pr__pfet_g5v0d10v5$1$4_0 sky130_fd_pr__pfet_g5v0d10v5$1$4_0/a_n358_n50#
+ sky130_fd_pr__pfet_g5v0d10v5$1$4_0/a_n300_n147# sky130_fd_pr__pfet_g5v0d10v5$1$4_0/w_n558_n347#
+ sky130_fd_pr__pfet_g5v0d10v5$1$4_0/a_300_n50# sky130_fd_pr__pfet_g5v0d10v5$1$4
.ends

.subckt x1T1R_w50_l300_pmos$1 B D DIODE
Xw50_l300_pmos$2_0 w_5419_n25463# D li_n19119_n22791# RRAM$7$1_0/TE w50_l300_pmos$2
D0 RRAM$7$1_0/VSUBS w_5419_n25463# sky130_fd_pr__diode_pd2nw_05v5 pj=1.8e+06u area=2.025e+11p
.ends

.subckt x1T1R_NOMOS$1 TOP_ELECTRODE
D0 RRAM$5$1_0/VSUBS w_5419_n25463# sky130_fd_pr__diode_pd2nw_05v5 pj=1.8e+06u area=2.025e+11p
.ends

.subckt sky130_fd_pr__pfet_g5v0d10v5$4$1 a_n358_n50# a_n300_n147# w_n558_n347# a_300_n50#
X0 a_300_n50# a_n300_n147# a_n358_n50# w_n558_n347# sky130_fd_pr__pfet_g5v0d10v5 ad=1.45e+11p pd=1.58e+06u as=1.45e+11p ps=1.58e+06u w=500000u l=3e+06u
.ends

.subckt w50_l300_pmos$1$1 sky130_fd_pr__pfet_g5v0d10v5$4$1_0/a_n358_n50# sky130_fd_pr__pfet_g5v0d10v5$4$1_0/a_n300_n147#
+ sky130_fd_pr__pfet_g5v0d10v5$4$1_0/w_n558_n347# sky130_fd_pr__pfet_g5v0d10v5$4$1_0/a_300_n50#
Xsky130_fd_pr__pfet_g5v0d10v5$4$1_0 sky130_fd_pr__pfet_g5v0d10v5$4$1_0/a_n358_n50#
+ sky130_fd_pr__pfet_g5v0d10v5$4$1_0/a_n300_n147# sky130_fd_pr__pfet_g5v0d10v5$4$1_0/w_n558_n347#
+ sky130_fd_pr__pfet_g5v0d10v5$4$1_0/a_300_n50# sky130_fd_pr__pfet_g5v0d10v5$4$1
.ends

.subckt sky130_fd_pr__nfet_g5v0d10v5$5$1 a_n492_n272# a_n358_n50# a_300_n50# a_n300_n138#
X0 a_300_n50# a_n300_n138# a_n358_n50# a_n492_n272# sky130_fd_pr__nfet_g5v0d10v5 ad=1.45e+11p pd=1.58e+06u as=1.45e+11p ps=1.58e+06u w=500000u l=3e+06u
.ends

.subckt w50_l300_nmos$1$1 sky130_fd_pr__nfet_g5v0d10v5$5$1_0/a_300_n50# sky130_fd_pr__nfet_g5v0d10v5$5$1_0/a_n300_n138#
+ sky130_fd_pr__nfet_g5v0d10v5$5$1_0/a_n358_n50# VSUBS
Xsky130_fd_pr__nfet_g5v0d10v5$5$1_0 VSUBS sky130_fd_pr__nfet_g5v0d10v5$5$1_0/a_n358_n50#
+ sky130_fd_pr__nfet_g5v0d10v5$5$1_0/a_300_n50# sky130_fd_pr__nfet_g5v0d10v5$5$1_0/a_n300_n138#
+ sky130_fd_pr__nfet_g5v0d10v5$5$1
.ends

.subckt x2T1R_w50_l300$1 G_n G_p DIODE_p DIODE_n B_n B_p D RRAM$4$2$1_0/VSUBS
Xw50_l300_pmos$1$1_0 RRAM$4$2$1_0/TE w_41419_n25463# li_n19119_n20775# m1_n18719_n22101#
+ w50_l300_pmos$1$1
Xw50_l300_nmos$1$1_0 RRAM$4$2$1_0/TE w_5419_n25463# m1_n18719_n22101# RRAM$4$2$1_0/VSUBS
+ w50_l300_nmos$1$1
D0 RRAM$4$2$1_0/VSUBS w_41419_n25463# sky130_fd_pr__diode_pd2nw_05v5 pj=1.8e+06u area=2.025e+11p
D1 RRAM$4$2$1_0/VSUBS w_5419_n25463# sky130_fd_pr__diode_pd2nw_05v5 pj=1.8e+06u area=2.025e+11p
.ends

.subckt sky130_fd_pr__nfet_g5v0d10v5$4$1$1 a_100_n50# a_n100_n138# a_n158_n50# a_n292_n272#
X0 a_100_n50# a_n100_n138# a_n158_n50# a_n292_n272# sky130_fd_pr__nfet_g5v0d10v5 ad=1.45e+11p pd=1.58e+06u as=1.45e+11p ps=1.58e+06u w=500000u l=1e+06u
.ends

.subckt w50_l100_nmos$1$1 sky130_fd_pr__nfet_g5v0d10v5$4$1$1_0/a_n158_n50# sky130_fd_pr__nfet_g5v0d10v5$4$1$1_0/a_n100_n138#
+ sky130_fd_pr__nfet_g5v0d10v5$4$1$1_0/a_100_n50# VSUBS
Xsky130_fd_pr__nfet_g5v0d10v5$4$1$1_0 sky130_fd_pr__nfet_g5v0d10v5$4$1$1_0/a_100_n50#
+ sky130_fd_pr__nfet_g5v0d10v5$4$1$1_0/a_n100_n138# sky130_fd_pr__nfet_g5v0d10v5$4$1$1_0/a_n158_n50#
+ VSUBS sky130_fd_pr__nfet_g5v0d10v5$4$1$1
.ends

.subckt sky130_fd_pr__pfet_g5v0d10v5_AQFHUS$1 w_n358_n347# a_100_n50# a_n158_n50#
+ a_n100_n147#
X0 a_100_n50# a_n100_n147# a_n158_n50# w_n358_n347# sky130_fd_pr__pfet_g5v0d10v5 ad=1.45e+11p pd=1.58e+06u as=1.45e+11p ps=1.58e+06u w=500000u l=1e+06u
.ends

.subckt w50_l100_pmos$1$1 sky130_fd_pr__pfet_g5v0d10v5_AQFHUS$1_0/a_100_n50# sky130_fd_pr__pfet_g5v0d10v5_AQFHUS$1_0/a_n100_n147#
+ sky130_fd_pr__pfet_g5v0d10v5_AQFHUS$1_0/a_n158_n50# sky130_fd_pr__pfet_g5v0d10v5_AQFHUS$1_0/w_n358_n347#
Xsky130_fd_pr__pfet_g5v0d10v5_AQFHUS$1_0 sky130_fd_pr__pfet_g5v0d10v5_AQFHUS$1_0/w_n358_n347#
+ sky130_fd_pr__pfet_g5v0d10v5_AQFHUS$1_0/a_100_n50# sky130_fd_pr__pfet_g5v0d10v5_AQFHUS$1_0/a_n158_n50#
+ sky130_fd_pr__pfet_g5v0d10v5_AQFHUS$1_0/a_n100_n147# sky130_fd_pr__pfet_g5v0d10v5_AQFHUS$1
.ends

.subckt x2T1R_w50_l100$1 G_n G_p DIODE_p DIODE_n B_n B_p D RRAM$4$1$1_0/VSUBS
Xw50_l100_nmos$1$1_0 m1_n18719_n22101# w_5419_n25463# RRAM$4$1$1_0/TE RRAM$4$1$1_0/VSUBS
+ w50_l100_nmos$1$1
Xw50_l100_pmos$1$1_0 m1_n18719_n22101# w_41419_n25463# RRAM$4$1$1_0/TE li_n19119_n20775#
+ w50_l100_pmos$1$1
D0 RRAM$4$1$1_0/VSUBS w_41419_n25463# sky130_fd_pr__diode_pd2nw_05v5 pj=1.8e+06u area=2.025e+11p
D1 RRAM$4$1$1_0/VSUBS w_5419_n25463# sky130_fd_pr__diode_pd2nw_05v5 pj=1.8e+06u area=2.025e+11p
.ends

.subckt sky130_fd_pr__nfet_g5v0d10v5$7 a_n1000_n138# a_1000_n50# a_n1192_n272# a_n1058_n50#
X0 a_1000_n50# a_n1000_n138# a_n1058_n50# a_n1192_n272# sky130_fd_pr__nfet_g5v0d10v5 ad=1.45e+11p pd=1.58e+06u as=1.45e+11p ps=1.58e+06u w=500000u l=1e+07u
.ends

.subckt w50_l1000_nmos$2 sky130_fd_pr__nfet_g5v0d10v5$7_0/a_1000_n50# sky130_fd_pr__nfet_g5v0d10v5$7_0/a_n1058_n50#
+ sky130_fd_pr__nfet_g5v0d10v5$7_0/a_n1000_n138# VSUBS
Xsky130_fd_pr__nfet_g5v0d10v5$7_0 sky130_fd_pr__nfet_g5v0d10v5$7_0/a_n1000_n138# sky130_fd_pr__nfet_g5v0d10v5$7_0/a_1000_n50#
+ VSUBS sky130_fd_pr__nfet_g5v0d10v5$7_0/a_n1058_n50# sky130_fd_pr__nfet_g5v0d10v5$7
.ends

.subckt x1T1R_w50_l1000_nmos$1 B D DIODE RRAM$11_0/VSUBS
Xw50_l1000_nmos$2_0 RRAM$11_0/TE m1_n18719_n21199# w_5419_n25463# RRAM$11_0/VSUBS
+ w50_l1000_nmos$2
D0 RRAM$11_0/VSUBS w_5419_n25463# sky130_fd_pr__diode_pd2nw_05v5 pj=1.8e+06u area=2.025e+11p
.ends

.subckt sky130_fd_pr__pfet_g5v0d10v5$6 w_n358_n347# a_100_n50# a_n158_n50# a_n100_n147#
X0 a_100_n50# a_n100_n147# a_n158_n50# w_n358_n347# sky130_fd_pr__pfet_g5v0d10v5 ad=1.45e+11p pd=1.58e+06u as=1.45e+11p ps=1.58e+06u w=500000u l=1e+06u
.ends

.subckt w50_l100_pmos$2 sky130_fd_pr__pfet_g5v0d10v5$6_0/a_n100_n147# sky130_fd_pr__pfet_g5v0d10v5$6_0/w_n358_n347#
+ sky130_fd_pr__pfet_g5v0d10v5$6_0/a_n158_n50# sky130_fd_pr__pfet_g5v0d10v5$6_0/a_100_n50#
Xsky130_fd_pr__pfet_g5v0d10v5$6_0 sky130_fd_pr__pfet_g5v0d10v5$6_0/w_n358_n347# sky130_fd_pr__pfet_g5v0d10v5$6_0/a_100_n50#
+ sky130_fd_pr__pfet_g5v0d10v5$6_0/a_n158_n50# sky130_fd_pr__pfet_g5v0d10v5$6_0/a_n100_n147#
+ sky130_fd_pr__pfet_g5v0d10v5$6
.ends

.subckt x1T1R_w50_l100_pmos$1 B D DIODE
Xw50_l100_pmos$2_0 w_5419_n25463# li_n19119_n22791# RRAM$6$1_0/TE D w50_l100_pmos$2
D0 RRAM$6$1_0/VSUBS w_5419_n25463# sky130_fd_pr__diode_pd2nw_05v5 pj=1.8e+06u area=2.025e+11p
.ends

.subckt M1T1R_2T1R_nmos_pmos$1 VSUBS
Xx1T1R_w50_l700_nmos$1_0[0] x1T1R_w50_l700_nmos$1_0[0]/B x1T1R_w50_l700_nmos$1_0[0]/D
+ x1T1R_w50_l700_nmos$1_0[0]/DIODE VSUBS x1T1R_w50_l700_nmos$1
Xx1T1R_w50_l700_nmos$1_0[1] x1T1R_w50_l700_nmos$1_0[1]/B x1T1R_w50_l700_nmos$1_0[1]/D
+ x1T1R_w50_l700_nmos$1_0[1]/DIODE VSUBS x1T1R_w50_l700_nmos$1
Xx1T1R_w50_l700_nmos$1_0[2] x1T1R_w50_l700_nmos$1_0[2]/B x1T1R_w50_l700_nmos$1_0[2]/D
+ x1T1R_w50_l700_nmos$1_0[2]/DIODE VSUBS x1T1R_w50_l700_nmos$1
Xx1T1R_w50_l700_nmos$1_0[3] x1T1R_w50_l700_nmos$1_0[3]/B x1T1R_w50_l700_nmos$1_0[3]/D
+ x1T1R_w50_l700_nmos$1_0[3]/DIODE VSUBS x1T1R_w50_l700_nmos$1
Xx1T1R_w50_l500_nmos$1_0[0] x1T1R_w50_l500_nmos$1_0[0]/B x1T1R_w50_l500_nmos$1_0[0]/D
+ x1T1R_w50_l500_nmos$1_0[0]/DIODE VSUBS x1T1R_w50_l500_nmos$1
Xx1T1R_w50_l500_nmos$1_0[1] x1T1R_w50_l500_nmos$1_0[1]/B x1T1R_w50_l500_nmos$1_0[1]/D
+ x1T1R_w50_l500_nmos$1_0[1]/DIODE VSUBS x1T1R_w50_l500_nmos$1
Xx1T1R_w50_l500_nmos$1_0[2] x1T1R_w50_l500_nmos$1_0[2]/B x1T1R_w50_l500_nmos$1_0[2]/D
+ x1T1R_w50_l500_nmos$1_0[2]/DIODE VSUBS x1T1R_w50_l500_nmos$1
Xx1T1R_w50_l500_nmos$1_0[3] x1T1R_w50_l500_nmos$1_0[3]/B x1T1R_w50_l500_nmos$1_0[3]/D
+ x1T1R_w50_l500_nmos$1_0[3]/DIODE VSUBS x1T1R_w50_l500_nmos$1
Xx1T1R_w50_l1000_pmos$1_0 x1T1R_w50_l1000_pmos$1_0/B x1T1R_w50_l1000_pmos$1_0/D x1T1R_w50_l1000_pmos$1_0/DIODE
+ x1T1R_w50_l1000_pmos$1
Xx1T1R_w50_l1000_pmos$1_1[0] x1T1R_w50_l1000_pmos$1_1[0]/B x1T1R_w50_l1000_pmos$1_1[0]/D
+ x1T1R_w50_l1000_pmos$1_1[0]/DIODE x1T1R_w50_l1000_pmos$1
Xx1T1R_w50_l1000_pmos$1_1[1] x1T1R_w50_l1000_pmos$1_1[1]/B x1T1R_w50_l1000_pmos$1_1[1]/D
+ x1T1R_w50_l1000_pmos$1_1[1]/DIODE x1T1R_w50_l1000_pmos$1
Xx1T1R_w50_l1000_pmos$1_1[2] x1T1R_w50_l1000_pmos$1_1[2]/B x1T1R_w50_l1000_pmos$1_1[2]/D
+ x1T1R_w50_l1000_pmos$1_1[2]/DIODE x1T1R_w50_l1000_pmos$1
Xx1T1R_w50_l700_pmos$1_0 x1T1R_w50_l700_pmos$1_0/B x1T1R_w50_l700_pmos$1_0/D x1T1R_w50_l700_pmos$1_0/DIODE
+ x1T1R_w50_l700_pmos$1
Xx1T1R_w50_l300_nmos$1_0 x1T1R_w50_l300_nmos$1_0/B x1T1R_w50_l300_nmos$1_0/D x1T1R_w50_l300_nmos$1_0/DIODE
+ VSUBS x1T1R_w50_l300_nmos$1
Xx1T1R_w50_l700_pmos$1_1[0] x1T1R_w50_l700_pmos$1_1[0]/B x1T1R_w50_l700_pmos$1_1[0]/D
+ x1T1R_w50_l700_pmos$1_1[0]/DIODE x1T1R_w50_l700_pmos$1
Xx1T1R_w50_l700_pmos$1_1[1] x1T1R_w50_l700_pmos$1_1[1]/B x1T1R_w50_l700_pmos$1_1[1]/D
+ x1T1R_w50_l700_pmos$1_1[1]/DIODE x1T1R_w50_l700_pmos$1
Xx1T1R_w50_l700_pmos$1_1[2] x1T1R_w50_l700_pmos$1_1[2]/B x1T1R_w50_l700_pmos$1_1[2]/D
+ x1T1R_w50_l700_pmos$1_1[2]/DIODE x1T1R_w50_l700_pmos$1
Xx1T1R_w50_l300_nmos$1_1[0] x1T1R_w50_l300_nmos$1_1[0]/B x1T1R_w50_l300_nmos$1_1[0]/D
+ x1T1R_w50_l300_nmos$1_1[0]/DIODE VSUBS x1T1R_w50_l300_nmos$1
Xx1T1R_w50_l300_nmos$1_1[1] x1T1R_w50_l300_nmos$1_1[1]/B x1T1R_w50_l300_nmos$1_1[1]/D
+ x1T1R_w50_l300_nmos$1_1[1]/DIODE VSUBS x1T1R_w50_l300_nmos$1
Xx1T1R_w50_l300_nmos$1_1[2] x1T1R_w50_l300_nmos$1_1[2]/B x1T1R_w50_l300_nmos$1_1[2]/D
+ x1T1R_w50_l300_nmos$1_1[2]/DIODE VSUBS x1T1R_w50_l300_nmos$1
Xx1T1R_w50_l300_nmos$1_1[3] x1T1R_w50_l300_nmos$1_1[3]/B x1T1R_w50_l300_nmos$1_1[3]/D
+ x1T1R_w50_l300_nmos$1_1[3]/DIODE VSUBS x1T1R_w50_l300_nmos$1
Xx2T1R_w50_l1000$1_0[0] x2T1R_w50_l1000$1_0[0]/G_n x2T1R_w50_l1000$1_0[0]/G_p x2T1R_w50_l1000$1_0[0]/DIODE_p
+ x2T1R_w50_l1000$1_0[0]/DIODE_n x2T1R_w50_l1000$1_0[0]/B_n x2T1R_w50_l1000$1_0[0]/B_p
+ x2T1R_w50_l1000$1_0[0]/D VSUBS x2T1R_w50_l1000$1
Xx2T1R_w50_l1000$1_0[1] x2T1R_w50_l1000$1_0[1]/G_n x2T1R_w50_l1000$1_0[1]/G_p x2T1R_w50_l1000$1_0[1]/DIODE_p
+ x2T1R_w50_l1000$1_0[1]/DIODE_n x2T1R_w50_l1000$1_0[1]/B_n x2T1R_w50_l1000$1_0[1]/B_p
+ x2T1R_w50_l1000$1_0[1]/D VSUBS x2T1R_w50_l1000$1
Xx2T1R_w50_l1000$1_0[2] x2T1R_w50_l1000$1_0[2]/G_n x2T1R_w50_l1000$1_0[2]/G_p x2T1R_w50_l1000$1_0[2]/DIODE_p
+ x2T1R_w50_l1000$1_0[2]/DIODE_n x2T1R_w50_l1000$1_0[2]/B_n x2T1R_w50_l1000$1_0[2]/B_p
+ x2T1R_w50_l1000$1_0[2]/D VSUBS x2T1R_w50_l1000$1
Xx2T1R_w50_l1000$1_1[0] x2T1R_w50_l1000$1_1[0]/G_n x2T1R_w50_l1000$1_1[0]/G_p x2T1R_w50_l1000$1_1[0]/DIODE_p
+ x2T1R_w50_l1000$1_1[0]/DIODE_n x2T1R_w50_l1000$1_1[0]/B_n x2T1R_w50_l1000$1_1[0]/B_p
+ x2T1R_w50_l1000$1_1[0]/D VSUBS x2T1R_w50_l1000$1
Xx2T1R_w50_l1000$1_1[1] x2T1R_w50_l1000$1_1[1]/G_n x2T1R_w50_l1000$1_1[1]/G_p x2T1R_w50_l1000$1_1[1]/DIODE_p
+ x2T1R_w50_l1000$1_1[1]/DIODE_n x2T1R_w50_l1000$1_1[1]/B_n x2T1R_w50_l1000$1_1[1]/B_p
+ x2T1R_w50_l1000$1_1[1]/D VSUBS x2T1R_w50_l1000$1
Xx2T1R_w50_l1000$1_1[2] x2T1R_w50_l1000$1_1[2]/G_n x2T1R_w50_l1000$1_1[2]/G_p x2T1R_w50_l1000$1_1[2]/DIODE_p
+ x2T1R_w50_l1000$1_1[2]/DIODE_n x2T1R_w50_l1000$1_1[2]/B_n x2T1R_w50_l1000$1_1[2]/B_p
+ x2T1R_w50_l1000$1_1[2]/D VSUBS x2T1R_w50_l1000$1
Xx1T1R_w50_l500_pmos$1_0[0] x1T1R_w50_l500_pmos$1_0[0]/B x1T1R_w50_l500_pmos$1_0[0]/D
+ x1T1R_w50_l500_pmos$1_0[0]/DIODE x1T1R_w50_l500_pmos$1
Xx1T1R_w50_l500_pmos$1_0[1] x1T1R_w50_l500_pmos$1_0[1]/B x1T1R_w50_l500_pmos$1_0[1]/D
+ x1T1R_w50_l500_pmos$1_0[1]/DIODE x1T1R_w50_l500_pmos$1
Xx1T1R_w50_l500_pmos$1_0[2] x1T1R_w50_l500_pmos$1_0[2]/B x1T1R_w50_l500_pmos$1_0[2]/D
+ x1T1R_w50_l500_pmos$1_0[2]/DIODE x1T1R_w50_l500_pmos$1
Xx1T1R_w50_l100_nmos$1_0[0] x1T1R_w50_l100_nmos$1_0[0]/B x1T1R_w50_l100_nmos$1_0[0]/D
+ x1T1R_w50_l100_nmos$1_0[0]/DIODE VSUBS x1T1R_w50_l100_nmos$1
Xx1T1R_w50_l100_nmos$1_0[1] x1T1R_w50_l100_nmos$1_0[1]/B x1T1R_w50_l100_nmos$1_0[1]/D
+ x1T1R_w50_l100_nmos$1_0[1]/DIODE VSUBS x1T1R_w50_l100_nmos$1
Xx1T1R_w50_l100_nmos$1_0[2] x1T1R_w50_l100_nmos$1_0[2]/B x1T1R_w50_l100_nmos$1_0[2]/D
+ x1T1R_w50_l100_nmos$1_0[2]/DIODE VSUBS x1T1R_w50_l100_nmos$1
Xx1T1R_w50_l100_nmos$1_0[3] x1T1R_w50_l100_nmos$1_0[3]/B x1T1R_w50_l100_nmos$1_0[3]/D
+ x1T1R_w50_l100_nmos$1_0[3]/DIODE VSUBS x1T1R_w50_l100_nmos$1
Xx1T1R_w50_l500_pmos$1_1 x1T1R_w50_l500_pmos$1_1/B x1T1R_w50_l500_pmos$1_1/D x1T1R_w50_l500_pmos$1_1/DIODE
+ x1T1R_w50_l500_pmos$1
Xx2T1R_w50_l700$1_0[0] x2T1R_w50_l700$1_0[0]/G_n x2T1R_w50_l700$1_0[0]/G_p x2T1R_w50_l700$1_0[0]/DIODE_p
+ x2T1R_w50_l700$1_0[0]/DIODE_n x2T1R_w50_l700$1_0[0]/B_n x2T1R_w50_l700$1_0[0]/B_p
+ x2T1R_w50_l700$1_0[0]/D VSUBS x2T1R_w50_l700$1
Xx2T1R_w50_l700$1_0[1] x2T1R_w50_l700$1_0[1]/G_n x2T1R_w50_l700$1_0[1]/G_p x2T1R_w50_l700$1_0[1]/DIODE_p
+ x2T1R_w50_l700$1_0[1]/DIODE_n x2T1R_w50_l700$1_0[1]/B_n x2T1R_w50_l700$1_0[1]/B_p
+ x2T1R_w50_l700$1_0[1]/D VSUBS x2T1R_w50_l700$1
Xx2T1R_w50_l700$1_0[2] x2T1R_w50_l700$1_0[2]/G_n x2T1R_w50_l700$1_0[2]/G_p x2T1R_w50_l700$1_0[2]/DIODE_p
+ x2T1R_w50_l700$1_0[2]/DIODE_n x2T1R_w50_l700$1_0[2]/B_n x2T1R_w50_l700$1_0[2]/B_p
+ x2T1R_w50_l700$1_0[2]/D VSUBS x2T1R_w50_l700$1
Xx2T1R_w50_l700$1_1[0] x2T1R_w50_l700$1_1[0]/G_n x2T1R_w50_l700$1_1[0]/G_p x2T1R_w50_l700$1_1[0]/DIODE_p
+ x2T1R_w50_l700$1_1[0]/DIODE_n x2T1R_w50_l700$1_1[0]/B_n x2T1R_w50_l700$1_1[0]/B_p
+ x2T1R_w50_l700$1_1[0]/D VSUBS x2T1R_w50_l700$1
Xx2T1R_w50_l700$1_1[1] x2T1R_w50_l700$1_1[1]/G_n x2T1R_w50_l700$1_1[1]/G_p x2T1R_w50_l700$1_1[1]/DIODE_p
+ x2T1R_w50_l700$1_1[1]/DIODE_n x2T1R_w50_l700$1_1[1]/B_n x2T1R_w50_l700$1_1[1]/B_p
+ x2T1R_w50_l700$1_1[1]/D VSUBS x2T1R_w50_l700$1
Xx2T1R_w50_l700$1_1[2] x2T1R_w50_l700$1_1[2]/G_n x2T1R_w50_l700$1_1[2]/G_p x2T1R_w50_l700$1_1[2]/DIODE_p
+ x2T1R_w50_l700$1_1[2]/DIODE_n x2T1R_w50_l700$1_1[2]/B_n x2T1R_w50_l700$1_1[2]/B_p
+ x2T1R_w50_l700$1_1[2]/D VSUBS x2T1R_w50_l700$1
Xx2T1R_w50_l500$1_0[0] x2T1R_w50_l500$1_0[0]/G_n x2T1R_w50_l500$1_0[0]/G_p x2T1R_w50_l500$1_0[0]/DIODE_p
+ x2T1R_w50_l500$1_0[0]/DIODE_n x2T1R_w50_l500$1_0[0]/B_n x2T1R_w50_l500$1_0[0]/B_p
+ x2T1R_w50_l500$1_0[0]/D VSUBS x2T1R_w50_l500$1
Xx2T1R_w50_l500$1_0[1] x2T1R_w50_l500$1_0[1]/G_n x2T1R_w50_l500$1_0[1]/G_p x2T1R_w50_l500$1_0[1]/DIODE_p
+ x2T1R_w50_l500$1_0[1]/DIODE_n x2T1R_w50_l500$1_0[1]/B_n x2T1R_w50_l500$1_0[1]/B_p
+ x2T1R_w50_l500$1_0[1]/D VSUBS x2T1R_w50_l500$1
Xx2T1R_w50_l500$1_0[2] x2T1R_w50_l500$1_0[2]/G_n x2T1R_w50_l500$1_0[2]/G_p x2T1R_w50_l500$1_0[2]/DIODE_p
+ x2T1R_w50_l500$1_0[2]/DIODE_n x2T1R_w50_l500$1_0[2]/B_n x2T1R_w50_l500$1_0[2]/B_p
+ x2T1R_w50_l500$1_0[2]/D VSUBS x2T1R_w50_l500$1
Xx1T1R_w50_l300_pmos$1_0[0] x1T1R_w50_l300_pmos$1_0[0]/B x1T1R_w50_l300_pmos$1_0[0]/D
+ x1T1R_w50_l300_pmos$1_0[0]/DIODE x1T1R_w50_l300_pmos$1
Xx1T1R_w50_l300_pmos$1_0[1] x1T1R_w50_l300_pmos$1_0[1]/B x1T1R_w50_l300_pmos$1_0[1]/D
+ x1T1R_w50_l300_pmos$1_0[1]/DIODE x1T1R_w50_l300_pmos$1
Xx1T1R_w50_l300_pmos$1_0[2] x1T1R_w50_l300_pmos$1_0[2]/B x1T1R_w50_l300_pmos$1_0[2]/D
+ x1T1R_w50_l300_pmos$1_0[2]/DIODE x1T1R_w50_l300_pmos$1
Xx1T1R_NOMOS$1_0 x1T1R_NOMOS$1_0/TOP_ELECTRODE x1T1R_NOMOS$1
Xx2T1R_w50_l500$1_1[0] x2T1R_w50_l500$1_1[0]/G_n x2T1R_w50_l500$1_1[0]/G_p x2T1R_w50_l500$1_1[0]/DIODE_p
+ x2T1R_w50_l500$1_1[0]/DIODE_n x2T1R_w50_l500$1_1[0]/B_n x2T1R_w50_l500$1_1[0]/B_p
+ x2T1R_w50_l500$1_1[0]/D VSUBS x2T1R_w50_l500$1
Xx2T1R_w50_l500$1_1[1] x2T1R_w50_l500$1_1[1]/G_n x2T1R_w50_l500$1_1[1]/G_p x2T1R_w50_l500$1_1[1]/DIODE_p
+ x2T1R_w50_l500$1_1[1]/DIODE_n x2T1R_w50_l500$1_1[1]/B_n x2T1R_w50_l500$1_1[1]/B_p
+ x2T1R_w50_l500$1_1[1]/D VSUBS x2T1R_w50_l500$1
Xx2T1R_w50_l500$1_1[2] x2T1R_w50_l500$1_1[2]/G_n x2T1R_w50_l500$1_1[2]/G_p x2T1R_w50_l500$1_1[2]/DIODE_p
+ x2T1R_w50_l500$1_1[2]/DIODE_n x2T1R_w50_l500$1_1[2]/B_n x2T1R_w50_l500$1_1[2]/B_p
+ x2T1R_w50_l500$1_1[2]/D VSUBS x2T1R_w50_l500$1
Xx1T1R_NOMOS$1_1[0] x1T1R_NOMOS$1_1[0]/TOP_ELECTRODE x1T1R_NOMOS$1
Xx1T1R_NOMOS$1_1[1] x1T1R_NOMOS$1_1[1]/TOP_ELECTRODE x1T1R_NOMOS$1
Xx1T1R_NOMOS$1_1[2] x1T1R_NOMOS$1_1[2]/TOP_ELECTRODE x1T1R_NOMOS$1
Xx2T1R_w50_l300$1_0[0] x2T1R_w50_l300$1_0[0]/G_n x2T1R_w50_l300$1_0[0]/G_p x2T1R_w50_l300$1_0[0]/DIODE_p
+ x2T1R_w50_l300$1_0[0]/DIODE_n x2T1R_w50_l300$1_0[0]/B_n x2T1R_w50_l300$1_0[0]/B_p
+ x2T1R_w50_l300$1_0[0]/D VSUBS x2T1R_w50_l300$1
Xx2T1R_w50_l300$1_0[1] x2T1R_w50_l300$1_0[1]/G_n x2T1R_w50_l300$1_0[1]/G_p x2T1R_w50_l300$1_0[1]/DIODE_p
+ x2T1R_w50_l300$1_0[1]/DIODE_n x2T1R_w50_l300$1_0[1]/B_n x2T1R_w50_l300$1_0[1]/B_p
+ x2T1R_w50_l300$1_0[1]/D VSUBS x2T1R_w50_l300$1
Xx2T1R_w50_l300$1_0[2] x2T1R_w50_l300$1_0[2]/G_n x2T1R_w50_l300$1_0[2]/G_p x2T1R_w50_l300$1_0[2]/DIODE_p
+ x2T1R_w50_l300$1_0[2]/DIODE_n x2T1R_w50_l300$1_0[2]/B_n x2T1R_w50_l300$1_0[2]/B_p
+ x2T1R_w50_l300$1_0[2]/D VSUBS x2T1R_w50_l300$1
Xx1T1R_NOMOS$1_2[0] x1T1R_NOMOS$1_2[0]/TOP_ELECTRODE x1T1R_NOMOS$1
Xx1T1R_NOMOS$1_2[1] x1T1R_NOMOS$1_2[1]/TOP_ELECTRODE x1T1R_NOMOS$1
Xx1T1R_NOMOS$1_2[2] x1T1R_NOMOS$1_2[2]/TOP_ELECTRODE x1T1R_NOMOS$1
Xx1T1R_NOMOS$1_2[3] x1T1R_NOMOS$1_2[3]/TOP_ELECTRODE x1T1R_NOMOS$1
Xx2T1R_w50_l300$1_1[0] x2T1R_w50_l300$1_1[0]/G_n x2T1R_w50_l300$1_1[0]/G_p x2T1R_w50_l300$1_1[0]/DIODE_p
+ x2T1R_w50_l300$1_1[0]/DIODE_n x2T1R_w50_l300$1_1[0]/B_n x2T1R_w50_l300$1_1[0]/B_p
+ x2T1R_w50_l300$1_1[0]/D VSUBS x2T1R_w50_l300$1
Xx2T1R_w50_l300$1_1[1] x2T1R_w50_l300$1_1[1]/G_n x2T1R_w50_l300$1_1[1]/G_p x2T1R_w50_l300$1_1[1]/DIODE_p
+ x2T1R_w50_l300$1_1[1]/DIODE_n x2T1R_w50_l300$1_1[1]/B_n x2T1R_w50_l300$1_1[1]/B_p
+ x2T1R_w50_l300$1_1[1]/D VSUBS x2T1R_w50_l300$1
Xx2T1R_w50_l300$1_1[2] x2T1R_w50_l300$1_1[2]/G_n x2T1R_w50_l300$1_1[2]/G_p x2T1R_w50_l300$1_1[2]/DIODE_p
+ x2T1R_w50_l300$1_1[2]/DIODE_n x2T1R_w50_l300$1_1[2]/B_n x2T1R_w50_l300$1_1[2]/B_p