* NGSPICE file created from user_analog_project_wrapper.ext - technology: sky130A

.subckt sky130_fd_pr__pfet_01v8_UGG56J a_n73_n10000# a_15_n10000# w_n211_n10219# a_n33_n10097#
X0 a_15_n10000# a_n33_n10097# a_n73_n10000# w_n211_n10219# sky130_fd_pr__pfet_01v8 ad=3.6e+13p pd=2.0072e+08u as=2.9e+13p ps=2.0058e+08u w=1e+08u l=150000u
.ends

.subckt BIG_PMOS
XBIG_PMOS m1_12219_232# m1_12219_n1955# li_266_352# m1_36_n9955# sky130_fd_pr__pfet_01v8_UGG56J
.ends

.subckt sky130_fd_pr__cap_mim_m3_2_5RKW4M m4_n3351_n3100# c2_n3251_n3000#
X0 c2_n3251_n3000# m4_n3351_n3100# sky130_fd_pr__cap_mim_m3_2 l=3e+07u w=3e+07u
.ends

.subckt x2fF_decap sky130_fd_pr__cap_mim_m3_2_5RKW4M_0/c2_n3251_n3000# sky130_fd_pr__cap_mim_m3_2_5RKW4M_0/m4_n3351_n3100#
Xsky130_fd_pr__cap_mim_m3_2_5RKW4M_0 sky130_fd_pr__cap_mim_m3_2_5RKW4M_0/m4_n3351_n3100#
+ sky130_fd_pr__cap_mim_m3_2_5RKW4M_0/c2_n3251_n3000# sky130_fd_pr__cap_mim_m3_2_5RKW4M
.ends

.subckt sky130_fd_sc_hd__nand2_1 VGND VPWR Y B A VNB VPB
X0 VPWR A Y VPB sky130_fd_pr__pfet_01v8_hvt ad=5.2e+11p pd=5.04e+06u as=2.7e+11p ps=2.54e+06u w=1e+06u l=150000u
X1 Y A a_113_47# VNB sky130_fd_pr__nfet_01v8 ad=1.69e+11p pd=1.82e+06u as=1.755e+11p ps=1.84e+06u w=650000u l=150000u
X2 a_113_47# B VGND VNB sky130_fd_pr__nfet_01v8 ad=0p pd=0u as=1.69e+11p ps=1.82e+06u w=650000u l=150000u
X3 Y B VPWR VPB sky130_fd_pr__pfet_01v8_hvt ad=0p pd=0u as=0p ps=0u w=1e+06u l=150000u
.ends

.subckt sky130_fd_sc_hd__inv_1 VGND VPWR Y A VNB VPB
X0 Y A VGND VNB sky130_fd_pr__nfet_01v8 ad=1.69e+11p pd=1.82e+06u as=1.69e+11p ps=1.82e+06u w=650000u l=150000u
X1 Y A VPWR VPB sky130_fd_pr__pfet_01v8_hvt ad=2.6e+11p pd=2.52e+06u as=2.6e+11p ps=2.52e+06u w=1e+06u l=150000u
.ends

.subckt sky130_fd_sc_hd__dfstp_1 VPWR VGND D Q SET_B CLK VNB VPB
X0 VGND a_652_21# a_586_47# VNB sky130_fd_pr__nfet_01v8 ad=9.868e+11p pd=1.019e+07u as=1.341e+11p ps=1.5e+06u w=420000u l=150000u
X1 a_956_413# a_476_47# VPWR VPB sky130_fd_pr__pfet_01v8_hvt ad=9.66e+10p pd=1.3e+06u as=1.3171e+12p ps=1.335e+07u w=420000u l=150000u
X2 VPWR a_476_47# a_652_21# VPB sky130_fd_pr__pfet_01v8_hvt ad=0p pd=0u as=1.134e+11p ps=1.38e+06u w=420000u l=150000u
X3 a_586_47# a_193_47# a_476_47# VNB sky130_fd_pr__nfet_01v8 ad=0p pd=0u as=1.44e+11p ps=1.52e+06u w=360000u l=150000u
X4 VPWR CLK a_27_47# VPB sky130_fd_pr__pfet_01v8_hvt ad=0p pd=0u as=1.664e+11p ps=1.8e+06u w=640000u l=150000u
X5 a_476_47# a_27_47# a_381_47# VNB sky130_fd_pr__nfet_01v8 ad=0p pd=0u as=1.87e+11p ps=1.93e+06u w=360000u l=150000u
X6 a_1056_47# a_476_47# VGND VNB sky130_fd_pr__nfet_01v8 ad=8.82e+10p pd=1.26e+06u as=0p ps=0u w=420000u l=150000u
X7 a_381_47# D VPWR VPB sky130_fd_pr__pfet_01v8_hvt ad=2.499e+11p pd=2.35e+06u as=0p ps=0u w=840000u l=150000u
X8 a_652_21# SET_B VPWR VPB sky130_fd_pr__pfet_01v8_hvt ad=0p pd=0u as=0p ps=0u w=420000u l=150000u
X9 a_1224_47# a_27_47# a_1032_413# VNB sky130_fd_pr__nfet_01v8 ad=8.82e+10p pd=1.26e+06u as=1.386e+11p ps=1.5e+06u w=420000u l=150000u
X10 a_562_413# a_27_47# a_476_47# VPB sky130_fd_pr__pfet_01v8_hvt ad=1.89e+11p pd=1.74e+06u as=1.134e+11p ps=1.38e+06u w=420000u l=150000u
X11 VGND a_1032_413# a_1602_47# VNB sky130_fd_pr__nfet_01v8 ad=0p pd=0u as=1.092e+11p ps=1.36e+06u w=420000u l=150000u
X12 VPWR a_1182_261# a_1140_413# VPB sky130_fd_pr__pfet_01v8_hvt ad=0p pd=0u as=8.82e+10p ps=1.26e+06u w=420000u l=150000u
X13 Q a_1602_47# VPWR VPB sky130_fd_pr__pfet_01v8_hvt ad=2.6e+11p pd=2.52e+06u as=0p ps=0u w=1e+06u l=150000u
X14 a_1032_413# a_193_47# a_1056_47# VNB sky130_fd_pr__nfet_01v8 ad=0p pd=0u as=0p ps=0u w=420000u l=150000u
X15 a_476_47# a_193_47# a_381_47# VPB sky130_fd_pr__pfet_01v8_hvt ad=0p pd=0u as=0p ps=0u w=420000u l=150000u
X16 a_1296_47# a_1182_261# a_1224_47# VNB sky130_fd_pr__nfet_01v8 ad=9.66e+10p pd=1.3e+06u as=0p ps=0u w=420000u l=150000u
X17 a_193_47# a_27_47# VGND VNB sky130_fd_pr__nfet_01v8 ad=1.092e+11p pd=1.36e+06u as=0p ps=0u w=420000u l=150000u
X18 VPWR a_652_21# a_562_413# VPB sky130_fd_pr__pfet_01v8_hvt ad=0p pd=0u as=0p ps=0u w=420000u l=150000u
X19 VPWR SET_B a_1032_413# VPB sky130_fd_pr__pfet_01v8_hvt ad=0p pd=0u as=2.73e+11p ps=2.98e+06u w=420000u l=150000u
X20 a_1032_413# a_27_47# a_956_413# VPB sky130_fd_pr__pfet_01v8_hvt ad=0p pd=0u as=0p ps=0u w=420000u l=150000u
X21 a_1182_261# a_1032_413# VPWR VPB sky130_fd_pr__pfet_01v8_hvt ad=2.184e+11p pd=2.2e+06u as=0p ps=0u w=840000u l=150000u
X22 Q a_1602_47# VGND VNB sky130_fd_pr__nfet_01v8 ad=1.69e+11p pd=1.82e+06u as=0p ps=0u w=650000u l=150000u
X23 a_193_47# a_27_47# VPWR VPB sky130_fd_pr__pfet_01v8_hvt ad=1.664e+11p pd=1.8e+06u as=0p ps=0u w=640000u l=150000u
X24 a_1140_413# a_193_47# a_1032_413# VPB sky130_fd_pr__pfet_01v8_hvt ad=0p pd=0u as=0p ps=0u w=420000u l=150000u
X25 VPWR a_1032_413# a_1602_47# VPB sky130_fd_pr__pfet_01v8_hvt ad=0p pd=0u as=1.664e+11p ps=1.8e+06u w=640000u l=150000u
X26 a_796_47# SET_B VGND VNB sky130_fd_pr__nfet_01v8 ad=8.82e+10p pd=1.26e+06u as=0p ps=0u w=420000u l=150000u
X27 a_381_47# D VGND VNB sky130_fd_pr__nfet_01v8 ad=0p pd=0u as=0p ps=0u w=640000u l=150000u
X28 a_1182_261# a_1032_413# VGND VNB sky130_fd_pr__nfet_01v8 ad=1.404e+11p pd=1.6e+06u as=0p ps=0u w=540000u l=150000u
X29 a_652_21# a_476_47# a_796_47# VNB sky130_fd_pr__nfet_01v8 ad=1.092e+11p pd=1.36e+06u as=0p ps=0u w=420000u l=150000u
X30 VGND CLK a_27_47# VNB sky130_fd_pr__nfet_01v8 ad=0p pd=0u as=1.092e+11p ps=1.36e+06u w=420000u l=150000u
X31 VGND SET_B a_1296_47# VNB sky130_fd_pr__nfet_01v8 ad=0p pd=0u as=0p ps=0u w=420000u l=150000u
.ends

.subckt sky130_fd_sc_hd__nor2_1 VGND VPWR B Y A VNB VPB
X0 VPWR A a_109_297# VPB sky130_fd_pr__pfet_01v8_hvt ad=2.6e+11p pd=2.52e+06u as=2.1e+11p ps=2.42e+06u w=1e+06u l=150000u
X1 VGND A Y VNB sky130_fd_pr__nfet_01v8 ad=3.38e+11p pd=3.64e+06u as=1.755e+11p ps=1.84e+06u w=650000u l=150000u
X2 a_109_297# B Y VPB sky130_fd_pr__pfet_01v8_hvt ad=0p pd=0u as=2.6e+11p ps=2.52e+06u w=1e+06u l=150000u
X3 Y B VGND VNB sky130_fd_pr__nfet_01v8 ad=0p pd=0u as=0p ps=0u w=650000u l=150000u
.ends

.subckt sky130_fd_sc_hd__clkbuf_4 VGND VPWR X A VNB VPB
X0 VPWR A a_27_47# VPB sky130_fd_pr__pfet_01v8_hvt ad=9.1e+11p pd=7.82e+06u as=2.65e+11p ps=2.53e+06u w=1e+06u l=150000u
X1 VGND a_27_47# X VNB sky130_fd_pr__nfet_01v8 ad=3.801e+11p pd=4.33e+06u as=2.352e+11p ps=2.8e+06u w=420000u l=150000u
X2 VGND a_27_47# X VNB sky130_fd_pr__nfet_01v8 ad=0p pd=0u as=0p ps=0u w=420000u l=150000u
X3 X a_27_47# VPWR VPB sky130_fd_pr__pfet_01v8_hvt ad=5.6e+11p pd=5.12e+06u as=0p ps=0u w=1e+06u l=150000u
X4 X a_27_47# VGND VNB sky130_fd_pr__nfet_01v8 ad=0p pd=0u as=0p ps=0u w=420000u l=150000u
X5 VGND A a_27_47# VNB sky130_fd_pr__nfet_01v8 ad=0p pd=0u as=1.113e+11p ps=1.37e+06u w=420000u l=150000u
X6 VPWR a_27_47# X VPB sky130_fd_pr__pfet_01v8_hvt ad=0p pd=0u as=0p ps=0u w=1e+06u l=150000u
X7 X a_27_47# VGND VNB sky130_fd_pr__nfet_01v8 ad=0p pd=0u as=0p ps=0u w=420000u l=150000u
X8 X a_27_47# VPWR VPB sky130_fd_pr__pfet_01v8_hvt ad=0p pd=0u as=0p ps=0u w=1e+06u l=150000u
X9 VPWR a_27_47# X VPB sky130_fd_pr__pfet_01v8_hvt ad=0p pd=0u as=0p ps=0u w=1e+06u l=150000u
.ends

.subckt sky130_fd_sc_hd__nand2_2 VGND VPWR Y A B VNB VPB
X0 VPWR A Y VPB sky130_fd_pr__pfet_01v8_hvt ad=7.9e+11p pd=7.58e+06u as=5.4e+11p ps=5.08e+06u w=1e+06u l=150000u
X1 Y A VPWR VPB sky130_fd_pr__pfet_01v8_hvt ad=0p pd=0u as=0p ps=0u w=1e+06u l=150000u
X2 VPWR B Y VPB sky130_fd_pr__pfet_01v8_hvt ad=0p pd=0u as=0p ps=0u w=1e+06u l=150000u
X3 a_27_47# B VGND VNB sky130_fd_pr__nfet_01v8 ad=5.135e+11p pd=5.48e+06u as=1.755e+11p ps=1.84e+06u w=650000u l=150000u
X4 a_27_47# A Y VNB sky130_fd_pr__nfet_01v8 ad=0p pd=0u as=1.755e+11p ps=1.84e+06u w=650000u l=150000u
X5 Y A a_27_47# VNB sky130_fd_pr__nfet_01v8 ad=0p pd=0u as=0p ps=0u w=650000u l=150000u
X6 Y B VPWR VPB sky130_fd_pr__pfet_01v8_hvt ad=0p pd=0u as=0p ps=0u w=1e+06u l=150000u
X7 VGND B a_27_47# VNB sky130_fd_pr__nfet_01v8 ad=0p pd=0u as=0p ps=0u w=650000u l=150000u
.ends

.subckt sky130_fd_sc_hd__clkbuf_2 VGND VPWR A X VNB VPB
X0 VPWR A a_27_47# VPB sky130_fd_pr__pfet_01v8_hvt ad=5.85e+11p pd=5.17e+06u as=2.65e+11p ps=2.53e+06u w=1e+06u l=150000u
X1 VPWR a_27_47# X VPB sky130_fd_pr__pfet_01v8_hvt ad=0p pd=0u as=2.7e+11p ps=2.54e+06u w=1e+06u l=150000u
X2 VGND A a_27_47# VNB sky130_fd_pr__nfet_01v8 ad=2.457e+11p pd=2.85e+06u as=1.113e+11p ps=1.37e+06u w=420000u l=150000u
X3 X a_27_47# VPWR VPB sky130_fd_pr__pfet_01v8_hvt ad=0p pd=0u as=0p ps=0u w=1e+06u l=150000u
X4 X a_27_47# VGND VNB sky130_fd_pr__nfet_01v8 ad=1.134e+11p pd=1.38e+06u as=0p ps=0u w=420000u l=150000u
X5 VGND a_27_47# X VNB sky130_fd_pr__nfet_01v8 ad=0p pd=0u as=0p ps=0u w=420000u l=150000u
.ends

.subckt sky130_fd_sc_hd__buf_16 VGND VPWR A X VNB VPB
X0 VGND A a_109_47# VNB sky130_fd_pr__nfet_01v8 ad=2.093e+12p pd=2.204e+07u as=5.265e+11p ps=5.52e+06u w=650000u l=150000u
X1 X a_109_47# VPWR VPB sky130_fd_pr__pfet_01v8_hvt ad=2.16e+12p pd=2.032e+07u as=3.22e+12p ps=3.044e+07u w=1e+06u l=150000u
X2 VGND a_109_47# X VNB sky130_fd_pr__nfet_01v8 ad=0p pd=0u as=1.404e+12p ps=1.472e+07u w=650000u l=150000u
X3 VGND a_109_47# X VNB sky130_fd_pr__nfet_01v8 ad=0p pd=0u as=0p ps=0u w=650000u l=150000u
X4 X a_109_47# VPWR VPB sky130_fd_pr__pfet_01v8_hvt ad=0p pd=0u as=0p ps=0u w=1e+06u l=150000u
X5 VGND a_109_47# X VNB sky130_fd_pr__nfet_01v8 ad=0p pd=0u as=0p ps=0u w=650000u l=150000u
X6 VPWR a_109_47# X VPB sky130_fd_pr__pfet_01v8_hvt ad=0p pd=0u as=0p ps=0u w=1e+06u l=150000u
X7 a_109_47# A VPWR VPB sky130_fd_pr__pfet_01v8_hvt ad=8.1e+11p pd=7.62e+06u as=0p ps=0u w=1e+06u l=150000u
X8 X a_109_47# VPWR VPB sky130_fd_pr__pfet_01v8_hvt ad=0p pd=0u as=0p ps=0u w=1e+06u l=150000u
X9 VPWR A a_109_47# VPB sky130_fd_pr__pfet_01v8_hvt ad=0p pd=0u as=0p ps=0u w=1e+06u l=150000u
X10 X a_109_47# VGND VNB sky130_fd_pr__nfet_01v8 ad=0p pd=0u as=0p ps=0u w=650000u l=150000u
X11 X a_109_47# VGND VNB sky130_fd_pr__nfet_01v8 ad=0p pd=0u as=0p ps=0u w=650000u l=150000u
X12 X a_109_47# VGND VNB sky130_fd_pr__nfet_01v8 ad=0p pd=0u as=0p ps=0u w=650000u l=150000u
X13 X a_109_47# VGND VNB sky130_fd_pr__nfet_01v8 ad=0p pd=0u as=0p ps=0u w=650000u l=150000u
X14 a_109_47# A VPWR VPB sky130_fd_pr__pfet_01v8_hvt ad=0p pd=0u as=0p ps=0u w=1e+06u l=150000u
X15 VPWR a_109_47# X VPB sky130_fd_pr__pfet_01v8_hvt ad=0p pd=0u as=0p ps=0u w=1e+06u l=150000u
X16 X a_109_47# VGND VNB sky130_fd_pr__nfet_01v8 ad=0p pd=0u as=0p ps=0u w=650000u l=150000u
X17 X a_109_47# VPWR VPB sky130_fd_pr__pfet_01v8_hvt ad=0p pd=0u as=0p ps=0u w=1e+06u l=150000u
X18 VPWR A a_109_47# VPB sky130_fd_pr__pfet_01v8_hvt ad=0p pd=0u as=0p ps=0u w=1e+06u l=150000u
X19 VPWR a_109_47# X VPB sky130_fd_pr__pfet_01v8_hvt ad=0p pd=0u as=0p ps=0u w=1e+06u l=150000u
X20 VGND A a_109_47# VNB sky130_fd_pr__nfet_01v8 ad=0p pd=0u as=0p ps=0u w=650000u l=150000u
X21 VGND A a_109_47# VNB sky130_fd_pr__nfet_01v8 ad=0p pd=0u as=0p ps=0u w=650000u l=150000u
X22 VGND a_109_47# X VNB sky130_fd_pr__nfet_01v8 ad=0p pd=0u as=0p ps=0u w=650000u l=150000u
X23 X a_109_47# VPWR VPB sky130_fd_pr__pfet_01v8_hvt ad=0p pd=0u as=0p ps=0u w=1e+06u l=150000u
X24 VGND a_109_47# X VNB sky130_fd_pr__nfet_01v8 ad=0p pd=0u as=0p ps=0u w=650000u l=150000u
X25 VPWR a_109_47# X VPB sky130_fd_pr__pfet_01v8_hvt ad=0p pd=0u as=0p ps=0u w=1e+06u l=150000u
X26 VGND a_109_47# X VNB sky130_fd_pr__nfet_01v8 ad=0p pd=0u as=0p ps=0u w=650000u l=150000u
X27 VPWR a_109_47# X VPB sky130_fd_pr__pfet_01v8_hvt ad=0p pd=0u as=0p ps=0u w=1e+06u l=150000u
X28 X a_109_47# VPWR VPB sky130_fd_pr__pfet_01v8_hvt ad=0p pd=0u as=0p ps=0u w=1e+06u l=150000u
X29 VGND a_109_47# X VNB sky130_fd_pr__nfet_01v8 ad=0p pd=0u as=0p ps=0u w=650000u l=150000u
X30 a_109_47# A VGND VNB sky130_fd_pr__nfet_01v8 ad=0p pd=0u as=0p ps=0u w=650000u l=150000u
X31 a_109_47# A VGND VNB sky130_fd_pr__nfet_01v8 ad=0p pd=0u as=0p ps=0u w=650000u l=150000u
X32 X a_109_47# VPWR VPB sky130_fd_pr__pfet_01v8_hvt ad=0p pd=0u as=0p ps=0u w=1e+06u l=150000u
X33 VPWR a_109_47# X VPB sky130_fd_pr__pfet_01v8_hvt ad=0p pd=0u as=0p ps=0u w=1e+06u l=150000u
X34 X a_109_47# VGND VNB sky130_fd_pr__nfet_01v8 ad=0p pd=0u as=0p ps=0u w=650000u l=150000u
X35 X a_109_47# VGND VNB sky130_fd_pr__nfet_01v8 ad=0p pd=0u as=0p ps=0u w=650000u l=150000u
X36 VPWR A a_109_47# VPB sky130_fd_pr__pfet_01v8_hvt ad=0p pd=0u as=0p ps=0u w=1e+06u l=150000u
X37 X a_109_47# VPWR VPB sky130_fd_pr__pfet_01v8_hvt ad=0p pd=0u as=0p ps=0u w=1e+06u l=150000u
X38 X a_109_47# VGND VNB sky130_fd_pr__nfet_01v8 ad=0p pd=0u as=0p ps=0u w=650000u l=150000u
X39 a_109_47# A VPWR VPB sky130_fd_pr__pfet_01v8_hvt ad=0p pd=0u as=0p ps=0u w=1e+06u l=150000u
X40 VPWR a_109_47# X VPB sky130_fd_pr__pfet_01v8_hvt ad=0p pd=0u as=0p ps=0u w=1e+06u l=150000u
X41 VPWR a_109_47# X VPB sky130_fd_pr__pfet_01v8_hvt ad=0p pd=0u as=0p ps=0u w=1e+06u l=150000u
X42 a_109_47# A VGND VNB sky130_fd_pr__nfet_01v8 ad=0p pd=0u as=0p ps=0u w=650000u l=150000u
X43 VGND a_109_47# X VNB sky130_fd_pr__nfet_01v8 ad=0p pd=0u as=0p ps=0u w=650000u l=150000u
.ends

.subckt sky130_fd_sc_hd__buf_2 VPWR VGND X A VNB VPB
X0 VPWR a_27_47# X VPB sky130_fd_pr__pfet_01v8_hvt ad=5.63e+11p pd=5.18e+06u as=2.7e+11p ps=2.54e+06u w=1e+06u l=150000u
X1 X a_27_47# VPWR VPB sky130_fd_pr__pfet_01v8_hvt ad=0p pd=0u as=0p ps=0u w=1e+06u l=150000u
X2 VPWR A a_27_47# VPB sky130_fd_pr__pfet_01v8_hvt ad=0p pd=0u as=1.664e+11p ps=1.8e+06u w=640000u l=150000u
X3 X a_27_47# VGND VNB sky130_fd_pr__nfet_01v8 ad=1.755e+11p pd=1.84e+06u as=3.6625e+11p ps=3.78e+06u w=650000u l=150000u
X4 VGND a_27_47# X VNB sky130_fd_pr__nfet_01v8 ad=0p pd=0u as=0p ps=0u w=650000u l=150000u
X5 VGND A a_27_47# VNB sky130_fd_pr__nfet_01v8 ad=0p pd=0u as=1.092e+11p ps=1.36e+06u w=420000u l=150000u
.ends

.subckt sky130_fd_sc_hd__inv_2 VPWR VGND A Y VNB VPB
X0 Y A VPWR VPB sky130_fd_pr__pfet_01v8_hvt ad=2.7e+11p pd=2.54e+06u as=5.2e+11p ps=5.04e+06u w=1e+06u l=150000u
X1 VGND A Y VNB sky130_fd_pr__nfet_01v8 ad=3.38e+11p pd=3.64e+06u as=1.755e+11p ps=1.84e+06u w=650000u l=150000u
X2 Y A VGND VNB sky130_fd_pr__nfet_01v8 ad=0p pd=0u as=0p ps=0u w=650000u l=150000u
X3 VPWR A Y VPB sky130_fd_pr__pfet_01v8_hvt ad=0p pd=0u as=0p ps=0u w=1e+06u l=150000u
.ends

.subckt sky130_fd_sc_hd__nand3_1 VGND VPWR Y A C B VNB VPB
X0 VPWR B Y VPB sky130_fd_pr__pfet_01v8_hvt ad=5.9e+11p pd=5.18e+06u as=5.3e+11p ps=5.06e+06u w=1e+06u l=150000u
X1 Y A VPWR VPB sky130_fd_pr__pfet_01v8_hvt ad=0p pd=0u as=0p ps=0u w=1e+06u l=150000u
X2 a_193_47# B a_109_47# VNB sky130_fd_pr__nfet_01v8 ad=2.145e+11p pd=1.96e+06u as=1.755e+11p ps=1.84e+06u w=650000u l=150000u
X3 Y A a_193_47# VNB sky130_fd_pr__nfet_01v8 ad=1.69e+11p pd=1.82e+06u as=0p ps=0u w=650000u l=150000u
X4 Y C VPWR VPB sky130_fd_pr__pfet_01v8_hvt ad=0p pd=0u as=0p ps=0u w=1e+06u l=150000u
X5 a_109_47# C VGND VNB sky130_fd_pr__nfet_01v8 ad=0p pd=0u as=1.69e+11p ps=1.82e+06u w=650000u l=150000u
.ends

.subckt sky130_fd_sc_hd__dfstp_2 VPWR VGND Q D SET_B CLK VNB VPB
X0 VGND a_652_21# a_586_47# VNB sky130_fd_pr__nfet_01v8 ad=1.1373e+12p pd=1.19e+07u as=1.341e+11p ps=1.5e+06u w=420000u l=150000u
X1 a_956_413# a_476_47# VPWR VPB sky130_fd_pr__pfet_01v8_hvt ad=8.82e+10p pd=1.26e+06u as=1.5449e+12p ps=1.575e+07u w=420000u l=150000u
X2 a_1136_413# a_193_47# a_1028_413# VPB sky130_fd_pr__pfet_01v8_hvt ad=8.82e+10p pd=1.26e+06u as=2.73e+11p ps=2.98e+06u w=420000u l=150000u
X3 VPWR a_476_47# a_652_21# VPB sky130_fd_pr__pfet_01v8_hvt ad=0p pd=0u as=1.134e+11p ps=1.38e+06u w=420000u l=150000u
X4 a_586_47# a_193_47# a_476_47# VNB sky130_fd_pr__nfet_01v8 ad=0p pd=0u as=1.44e+11p ps=1.52e+06u w=360000u l=150000u
X5 a_1228_47# a_27_47# a_1028_413# VNB sky130_fd_pr__nfet_01v8 ad=8.82e+10p pd=1.26e+06u as=1.47e+11p ps=1.54e+06u w=420000u l=150000u
X6 VPWR CLK a_27_47# VPB sky130_fd_pr__pfet_01v8_hvt ad=0p pd=0u as=1.664e+11p ps=1.8e+06u w=640000u l=150000u
X7 a_476_47# a_27_47# a_381_47# VNB sky130_fd_pr__nfet_01v8 ad=0p pd=0u as=1.87e+11p ps=1.93e+06u w=360000u l=150000u
X8 a_1056_47# a_476_47# VGND VNB sky130_fd_pr__nfet_01v8 ad=8.82e+10p pd=1.26e+06u as=0p ps=0u w=420000u l=150000u
X9 a_381_47# D VPWR VPB sky130_fd_pr__pfet_01v8_hvt ad=2.499e+11p pd=2.35e+06u as=0p ps=0u w=840000u l=150000u
X10 a_652_21# SET_B VPWR VPB sky130_fd_pr__pfet_01v8_hvt ad=0p pd=0u as=0p ps=0u w=420000u l=150000u
X11 VPWR a_1602_47# Q VPB sky130_fd_pr__pfet_01v8_hvt ad=0p pd=0u as=2.7e+11p ps=2.54e+06u w=1e+06u l=150000u
X12 a_562_413# a_27_47# a_476_47# VPB sky130_fd_pr__pfet_01v8_hvt ad=1.89e+11p pd=1.74e+06u as=1.134e+11p ps=1.38e+06u w=420000u l=150000u
X13 VGND a_1028_413# a_1602_47# VNB sky130_fd_pr__nfet_01v8 ad=0p pd=0u as=1.69e+11p ps=1.82e+06u w=650000u l=150000u
X14 VGND a_1602_47# Q VNB sky130_fd_pr__nfet_01v8 ad=0p pd=0u as=1.755e+11p ps=1.84e+06u w=650000u l=150000u
X15 Q a_1602_47# VPWR VPB sky130_fd_pr__pfet_01v8_hvt ad=0p pd=0u as=0p ps=0u w=1e+06u l=150000u
X16 a_1028_413# a_193_47# a_1056_47# VNB sky130_fd_pr__nfet_01v8 ad=0p pd=0u as=0p ps=0u w=420000u l=150000u
X17 a_476_47# a_193_47# a_381_47# VPB sky130_fd_pr__pfet_01v8_hvt ad=0p pd=0u as=0p ps=0u w=420000u l=150000u
X18 a_193_47# a_27_47# VGND VNB sky130_fd_pr__nfet_01v8 ad=1.092e+11p pd=1.36e+06u as=0p ps=0u w=420000u l=150000u
X19 VPWR a_1028_413# a_1602_47# VPB sky130_fd_pr__pfet_01v8_hvt ad=0p pd=0u as=2.6e+11p ps=2.52e+06u w=1e+06u l=150000u
X20 VPWR a_652_21# a_562_413# VPB sky130_fd_pr__pfet_01v8_hvt ad=0p pd=0u as=0p ps=0u w=420000u l=150000u
X21 Q a_1602_47# VGND VNB sky130_fd_pr__nfet_01v8 ad=0p pd=0u as=0p ps=0u w=650000u l=150000u
X22 a_1028_413# a_27_47# a_956_413# VPB sky130_fd_pr__pfet_01v8_hvt ad=0p pd=0u as=0p ps=0u w=420000u l=150000u
X23 VPWR a_1178_261# a_1136_413# VPB sky130_fd_pr__pfet_01v8_hvt ad=0p pd=0u as=0p ps=0u w=420000u l=150000u
X24 a_193_47# a_27_47# VPWR VPB sky130_fd_pr__pfet_01v8_hvt ad=1.664e+11p pd=1.8e+06u as=0p ps=0u w=640000u l=150000u
X25 a_1178_261# a_1028_413# VPWR VPB sky130_fd_pr__pfet_01v8_hvt ad=2.226e+11p pd=2.21e+06u as=0p ps=0u w=840000u l=150000u
X26 a_796_47# SET_B VGND VNB sky130_fd_pr__nfet_01v8 ad=8.82e+10p pd=1.26e+06u as=0p ps=0u w=420000u l=150000u
X27 a_1300_47# a_1178_261# a_1228_47# VNB sky130_fd_pr__nfet_01v8 ad=8.82e+10p pd=1.26e+06u as=0p ps=0u w=420000u l=150000u
X28 a_381_47# D VGND VNB sky130_fd_pr__nfet_01v8 ad=0p pd=0u as=0p ps=0u w=640000u l=150000u
X29 a_1178_261# a_1028_413# VGND VNB sky130_fd_pr__nfet_01v8 ad=1.404e+11p pd=1.6e+06u as=0p ps=0u w=540000u l=150000u
X30 a_652_21# a_476_47# a_796_47# VNB sky130_fd_pr__nfet_01v8 ad=1.092e+11p pd=1.36e+06u as=0p ps=0u w=420000u l=150000u
X31 VPWR SET_B a_1028_413# VPB sky130_fd_pr__pfet_01v8_hvt ad=0p pd=0u as=0p ps=0u w=420000u l=150000u
X32 VGND CLK a_27_47# VNB sky130_fd_pr__nfet_01v8 ad=0p pd=0u as=1.092e+11p ps=1.36e+06u w=420000u l=150000u
X33 VGND SET_B a_1300_47# VNB sky130_fd_pr__nfet_01v8 ad=0p pd=0u as=0p ps=0u w=420000u l=150000u
.ends

.subckt sky130_fd_sc_hd__clkbuf_1 VGND VPWR X A VNB VPB
X0 VPWR a_75_212# X VPB sky130_fd_pr__pfet_01v8_hvt ad=2.291e+11p pd=2.16e+06u as=2.054e+11p ps=2.1e+06u w=790000u l=150000u
X1 a_75_212# A VGND VNB sky130_fd_pr__nfet_01v8 ad=1.352e+11p pd=1.56e+06u as=1.508e+11p ps=1.62e+06u w=520000u l=150000u
X2 a_75_212# A VPWR VPB sky130_fd_pr__pfet_01v8_hvt ad=2.054e+11p pd=2.1e+06u as=0p ps=0u w=790000u l=150000u
X3 VGND a_75_212# X VNB sky130_fd_pr__nfet_01v8 ad=0p pd=0u as=1.352e+11p ps=1.56e+06u w=520000u l=150000u
.ends

.subckt sky130_fd_sc_hd__dlygate4sd1_1 VPWR VGND A X VNB VPB
X0 X a_299_93# VGND VNB sky130_fd_pr__nfet_01v8 ad=1.69e+11p pd=1.82e+06u as=3.139e+11p ps=3.35e+06u w=650000u l=150000u
X1 VPWR a_193_47# a_299_93# VPB sky130_fd_pr__pfet_01v8_hvt ad=3.949e+11p pd=4.03e+06u as=1.092e+11p ps=1.36e+06u w=420000u l=150000u
X2 VPWR A a_27_47# VPB sky130_fd_pr__pfet_01v8_hvt ad=0p pd=0u as=1.092e+11p ps=1.36e+06u w=420000u l=150000u
X3 a_193_47# a_27_47# VGND VNB sky130_fd_pr__nfet_01v8 ad=1.092e+11p pd=1.36e+06u as=0p ps=0u w=420000u l=150000u
X4 a_193_47# a_27_47# VPWR VPB sky130_fd_pr__pfet_01v8_hvt ad=1.092e+11p pd=1.36e+06u as=0p ps=0u w=420000u l=150000u
X5 VGND a_193_47# a_299_93# VNB sky130_fd_pr__nfet_01v8 ad=0p pd=0u as=1.092e+11p ps=1.36e+06u w=420000u l=150000u
X6 X a_299_93# VPWR VPB sky130_fd_pr__pfet_01v8_hvt ad=2.6e+11p pd=2.52e+06u as=0p ps=0u w=1e+06u l=150000u
X7 VGND A a_27_47# VNB sky130_fd_pr__nfet_01v8 ad=0p pd=0u as=1.092e+11p ps=1.36e+06u w=420000u l=150000u
.ends

.subckt NON_CLK_GEN clk clk_in clk0 clk0b clk1 clk1b control rst_n VPWR VGND
Xsky130_fd_sc_hd__nand2_1_9 VGND VPWR sky130_fd_sc_hd__nand3_1_2/B sky130_fd_sc_hd__inv_1_5/A
+ sky130_fd_sc_hd__inv_1_8/Y VGND VPWR sky130_fd_sc_hd__nand2_1
Xsky130_fd_sc_hd__inv_1_4 VGND VPWR sky130_fd_sc_hd__inv_1_4/Y sky130_fd_sc_hd__inv_1_4/A
+ VGND VPWR sky130_fd_sc_hd__inv_1
Xsky130_fd_sc_hd__inv_1_5 VGND VPWR sky130_fd_sc_hd__inv_1_5/Y sky130_fd_sc_hd__inv_1_5/A
+ VGND VPWR sky130_fd_sc_hd__inv_1
Xsky130_fd_sc_hd__inv_1_6 VGND VPWR sky130_fd_sc_hd__inv_1_6/Y sky130_fd_sc_hd__inv_1_9/A
+ VGND VPWR sky130_fd_sc_hd__inv_1
Xsky130_fd_sc_hd__dfstp_1_0 VPWR VGND sky130_fd_sc_hd__dfstp_1_5/Q sky130_fd_sc_hd__dfstp_1_1/D
+ sky130_fd_sc_hd__clkbuf_4_0/X sky130_fd_sc_hd__clkbuf_4_1/X VGND VPWR sky130_fd_sc_hd__dfstp_1
Xsky130_fd_sc_hd__inv_1_7 VGND VPWR sky130_fd_sc_hd__inv_1_7/Y sky130_fd_sc_hd__inv_1_7/A
+ VGND VPWR sky130_fd_sc_hd__inv_1
Xsky130_fd_sc_hd__dfstp_1_1 VPWR VGND sky130_fd_sc_hd__dfstp_1_1/D sky130_fd_sc_hd__inv_1_1/A
+ sky130_fd_sc_hd__clkbuf_4_0/X sky130_fd_sc_hd__clkbuf_4_1/X VGND VPWR sky130_fd_sc_hd__dfstp_1
Xsky130_fd_sc_hd__inv_1_8 VGND VPWR sky130_fd_sc_hd__inv_1_8/Y sky130_fd_sc_hd__inv_1_9/A
+ VGND VPWR sky130_fd_sc_hd__inv_1
Xsky130_fd_sc_hd__dfstp_1_2 VPWR VGND sky130_fd_sc_hd__dfstp_1_9/Q sky130_fd_sc_hd__dfstp_1_5/D
+ sky130_fd_sc_hd__clkbuf_4_0/X sky130_fd_sc_hd__clkbuf_4_1/X VGND VPWR sky130_fd_sc_hd__dfstp_1
Xsky130_fd_sc_hd__inv_1_9 VGND VPWR sky130_fd_sc_hd__inv_1_9/Y sky130_fd_sc_hd__inv_1_9/A
+ VGND VPWR sky130_fd_sc_hd__inv_1
Xsky130_fd_sc_hd__nor2_1_0 VGND VPWR sky130_fd_sc_hd__inv_1_9/A sky130_fd_sc_hd__nor2_1_0/Y
+ sky130_fd_sc_hd__inv_1_7/A VGND VPWR sky130_fd_sc_hd__nor2_1
Xsky130_fd_sc_hd__dfstp_1_3 VPWR VGND sky130_fd_sc_hd__dfstp_1_8/Q sky130_fd_sc_hd__dfstp_1_6/D
+ sky130_fd_sc_hd__clkbuf_4_0/X sky130_fd_sc_hd__clkbuf_4_2/X VGND VPWR sky130_fd_sc_hd__dfstp_1
Xsky130_fd_sc_hd__clkbuf_4_0 VGND VPWR sky130_fd_sc_hd__clkbuf_4_0/X rst_n VGND VPWR
+ sky130_fd_sc_hd__clkbuf_4
Xsky130_fd_sc_hd__dfstp_1_4 VPWR VGND sky130_fd_sc_hd__inv_1_5/A sky130_fd_sc_hd__inv_1_3/A
+ sky130_fd_sc_hd__clkbuf_4_0/X sky130_fd_sc_hd__clkbuf_4_2/X VGND VPWR sky130_fd_sc_hd__dfstp_1
Xsky130_fd_sc_hd__clkbuf_4_1 VGND VPWR sky130_fd_sc_hd__clkbuf_4_1/X sky130_fd_sc_hd__clkbuf_4_3/X
+ VGND VPWR sky130_fd_sc_hd__clkbuf_4
Xsky130_fd_sc_hd__dfstp_1_5 VPWR VGND sky130_fd_sc_hd__dfstp_1_5/D sky130_fd_sc_hd__dfstp_1_5/Q
+ sky130_fd_sc_hd__clkbuf_4_0/X sky130_fd_sc_hd__clkbuf_4_1/X VGND VPWR sky130_fd_sc_hd__dfstp_1
Xsky130_fd_sc_hd__nand2_2_0 VGND VPWR sky130_fd_sc_hd__inv_1_0/A sky130_fd_sc_hd__nand2_2_0/A
+ sky130_fd_sc_hd__nand3_1_0/Y VGND VPWR sky130_fd_sc_hd__nand2_2
Xsky130_fd_sc_hd__clkbuf_4_2 VGND VPWR sky130_fd_sc_hd__clkbuf_4_2/X sky130_fd_sc_hd__clkbuf_4_3/X
+ VGND VPWR sky130_fd_sc_hd__clkbuf_4
Xsky130_fd_sc_hd__nand2_1_10 VGND VPWR sky130_fd_sc_hd__nand3_1_1/B sky130_fd_sc_hd__inv_1_5/A
+ sky130_fd_sc_hd__inv_1_12/Y VGND VPWR sky130_fd_sc_hd__nand2_1
Xsky130_fd_sc_hd__dfstp_1_6 VPWR VGND sky130_fd_sc_hd__dfstp_1_6/D sky130_fd_sc_hd__inv_1_5/A
+ sky130_fd_sc_hd__clkbuf_4_0/X sky130_fd_sc_hd__clkbuf_4_2/X VGND VPWR sky130_fd_sc_hd__dfstp_1
Xsky130_fd_sc_hd__nand2_2_1 VGND VPWR sky130_fd_sc_hd__inv_2_0/A sky130_fd_sc_hd__inv_1_7/A
+ sky130_fd_sc_hd__inv_1_9/A VGND VPWR sky130_fd_sc_hd__nand2_2
Xsky130_fd_sc_hd__clkbuf_4_3 VGND VPWR sky130_fd_sc_hd__clkbuf_4_3/X clk VGND VPWR
+ sky130_fd_sc_hd__clkbuf_4
Xsky130_fd_sc_hd__clkbuf_2_0 VGND VPWR clk_in sky130_fd_sc_hd__inv_1_9/A VGND VPWR
+ sky130_fd_sc_hd__clkbuf_2
Xsky130_fd_sc_hd__nand2_1_11 VGND VPWR sky130_fd_sc_hd__nand2_2_0/A sky130_fd_sc_hd__inv_1_2/Y
+ sky130_fd_sc_hd__nand2_1_0/Y VGND VPWR sky130_fd_sc_hd__nand2_1
Xsky130_fd_sc_hd__dfstp_1_7 VPWR VGND sky130_fd_sc_hd__nand2_1_3/Y sky130_fd_sc_hd__dfstp_1_8/D
+ sky130_fd_sc_hd__clkbuf_4_0/X sky130_fd_sc_hd__clkbuf_4_2/X VGND VPWR sky130_fd_sc_hd__dfstp_1
Xsky130_fd_sc_hd__nand2_1_12 VGND VPWR sky130_fd_sc_hd__nand3_1_2/A sky130_fd_sc_hd__inv_1_5/Y
+ sky130_fd_sc_hd__inv_1_11/Y VGND VPWR sky130_fd_sc_hd__nand2_1
Xsky130_fd_sc_hd__dfstp_1_8 VPWR VGND sky130_fd_sc_hd__dfstp_1_8/D sky130_fd_sc_hd__dfstp_1_8/Q
+ sky130_fd_sc_hd__clkbuf_4_0/X sky130_fd_sc_hd__clkbuf_4_2/X VGND VPWR sky130_fd_sc_hd__dfstp_1
Xsky130_fd_sc_hd__dfstp_1_9 VPWR VGND sky130_fd_sc_hd__dfstp_1_9/D sky130_fd_sc_hd__dfstp_1_9/Q
+ sky130_fd_sc_hd__clkbuf_4_0/X sky130_fd_sc_hd__clkbuf_4_1/X VGND VPWR sky130_fd_sc_hd__dfstp_1
Xsky130_fd_sc_hd__buf_16_0 VGND VPWR sky130_fd_sc_hd__buf_16_0/A clk1b VGND VPWR sky130_fd_sc_hd__buf_16
Xsky130_fd_sc_hd__buf_2_0 VPWR VGND sky130_fd_sc_hd__buf_2_0/X sky130_fd_sc_hd__inv_1_0/A
+ VGND VPWR sky130_fd_sc_hd__buf_2
Xsky130_fd_sc_hd__inv_2_0 VPWR VGND sky130_fd_sc_hd__inv_2_0/A sky130_fd_sc_hd__inv_2_0/Y
+ VGND VPWR sky130_fd_sc_hd__inv_2
Xsky130_fd_sc_hd__buf_16_1 VGND VPWR sky130_fd_sc_hd__inv_2_0/Y clk0 VGND VPWR sky130_fd_sc_hd__buf_16
Xsky130_fd_sc_hd__buf_16_2 VGND VPWR sky130_fd_sc_hd__nor2_1_0/Y clk1 VGND VPWR sky130_fd_sc_hd__buf_16
Xsky130_fd_sc_hd__buf_16_3 VGND VPWR sky130_fd_sc_hd__inv_2_0/A clk0b VGND VPWR sky130_fd_sc_hd__buf_16
Xsky130_fd_sc_hd__nand3_1_0 VGND VPWR sky130_fd_sc_hd__nand3_1_0/Y sky130_fd_sc_hd__nand3_1_0/A
+ sky130_fd_sc_hd__inv_1_2/A sky130_fd_sc_hd__nand3_1_0/B VGND VPWR sky130_fd_sc_hd__nand3_1
Xsky130_fd_sc_hd__nand3_1_1 VGND VPWR sky130_fd_sc_hd__nand3_1_1/Y sky130_fd_sc_hd__nand3_1_1/A
+ sky130_fd_sc_hd__inv_1_3/A sky130_fd_sc_hd__nand3_1_1/B VGND VPWR sky130_fd_sc_hd__nand3_1
Xsky130_fd_sc_hd__nand3_1_2 VGND VPWR sky130_fd_sc_hd__nand3_1_2/Y sky130_fd_sc_hd__nand3_1_2/A
+ sky130_fd_sc_hd__inv_1_10/Y sky130_fd_sc_hd__nand3_1_2/B VGND VPWR sky130_fd_sc_hd__nand3_1
Xsky130_fd_sc_hd__dfstp_2_0 VPWR VGND sky130_fd_sc_hd__inv_1_4/A sky130_fd_sc_hd__buf_2_0/X
+ sky130_fd_sc_hd__clkbuf_4_0/X sky130_fd_sc_hd__clkbuf_4_1/X VGND VPWR sky130_fd_sc_hd__dfstp_2
Xsky130_fd_sc_hd__nand2_1_0 VGND VPWR sky130_fd_sc_hd__nand2_1_0/Y sky130_fd_sc_hd__nand3_1_0/B
+ sky130_fd_sc_hd__nand3_1_0/A VGND VPWR sky130_fd_sc_hd__nand2_1
Xsky130_fd_sc_hd__nand2_1_1 VGND VPWR sky130_fd_sc_hd__nand2_1_3/A sky130_fd_sc_hd__inv_1_0/A
+ sky130_fd_sc_hd__inv_1_3/Y VGND VPWR sky130_fd_sc_hd__nand2_1
Xsky130_fd_sc_hd__clkbuf_1_0 VGND VPWR sky130_fd_sc_hd__inv_1_2/A control VGND VPWR
+ sky130_fd_sc_hd__clkbuf_1
Xsky130_fd_sc_hd__nand2_1_2 VGND VPWR sky130_fd_sc_hd__nand2_1_3/B sky130_fd_sc_hd__inv_1_3/A
+ sky130_fd_sc_hd__inv_1_0/Y VGND VPWR sky130_fd_sc_hd__nand2_1
Xsky130_fd_sc_hd__nand2_1_3 VGND VPWR sky130_fd_sc_hd__nand2_1_3/Y sky130_fd_sc_hd__nand2_1_3/B
+ sky130_fd_sc_hd__nand2_1_3/A VGND VPWR sky130_fd_sc_hd__nand2_1
Xsky130_fd_sc_hd__nand2_1_4 VGND VPWR sky130_fd_sc_hd__nand3_1_0/B sky130_fd_sc_hd__inv_1_4/A
+ sky130_fd_sc_hd__inv_1_1/Y VGND VPWR sky130_fd_sc_hd__nand2_1
Xsky130_fd_sc_hd__inv_1_10 VGND VPWR sky130_fd_sc_hd__inv_1_10/Y sky130_fd_sc_hd__inv_1_3/A
+ VGND VPWR sky130_fd_sc_hd__inv_1
Xsky130_fd_sc_hd__nand2_1_5 VGND VPWR sky130_fd_sc_hd__nand3_1_0/A sky130_fd_sc_hd__inv_1_1/A
+ sky130_fd_sc_hd__inv_1_4/Y VGND VPWR sky130_fd_sc_hd__nand2_1
Xsky130_fd_sc_hd__inv_1_0 VGND VPWR sky130_fd_sc_hd__inv_1_0/Y sky130_fd_sc_hd__inv_1_0/A
+ VGND VPWR sky130_fd_sc_hd__inv_1
Xsky130_fd_sc_hd__inv_1_11 VGND VPWR sky130_fd_sc_hd__inv_1_11/Y sky130_fd_sc_hd__inv_1_9/A
+ VGND VPWR sky130_fd_sc_hd__inv_1
Xsky130_fd_sc_hd__nand2_1_6 VGND VPWR sky130_fd_sc_hd__buf_16_0/A sky130_fd_sc_hd__inv_1_6/Y
+ sky130_fd_sc_hd__inv_1_7/Y VGND VPWR sky130_fd_sc_hd__nand2_1
Xsky130_fd_sc_hd__inv_1_1 VGND VPWR sky130_fd_sc_hd__inv_1_1/Y sky130_fd_sc_hd__inv_1_1/A
+ VGND VPWR sky130_fd_sc_hd__inv_1
Xsky130_fd_sc_hd__inv_1_12 VGND VPWR sky130_fd_sc_hd__inv_1_12/Y sky130_fd_sc_hd__inv_1_9/A
+ VGND VPWR sky130_fd_sc_hd__inv_1
Xsky130_fd_sc_hd__dlygate4sd1_1_0 VPWR VGND sky130_fd_sc_hd__inv_1_4/A sky130_fd_sc_hd__dfstp_1_9/D
+ VGND VPWR sky130_fd_sc_hd__dlygate4sd1_1
Xsky130_fd_sc_hd__nand2_1_7 VGND VPWR sky130_fd_sc_hd__nand3_1_1/A sky130_fd_sc_hd__inv_1_9/Y
+ sky130_fd_sc_hd__inv_1_5/Y VGND VPWR sky130_fd_sc_hd__nand2_1
Xsky130_fd_sc_hd__inv_1_2 VGND VPWR sky130_fd_sc_hd__inv_1_2/Y sky130_fd_sc_hd__inv_1_2/A
+ VGND VPWR sky130_fd_sc_hd__inv_1
Xsky130_fd_sc_hd__nand2_1_8 VGND VPWR sky130_fd_sc_hd__inv_1_7/A sky130_fd_sc_hd__nand3_1_1/Y
+ sky130_fd_sc_hd__nand3_1_2/Y VGND VPWR sky130_fd_sc_hd__nand2_1
Xsky130_fd_sc_hd__inv_1_3 VGND VPWR sky130_fd_sc_hd__inv_1_3/Y sky130_fd_sc_hd__inv_1_3/A
+ VGND VPWR sky130_fd_sc_hd__inv_1
.ends

.subckt DCDC_CLKGATE VNB VPB CLK GCLK GATE
X0 VPB a_n10903_655# a_n10954_427# VPB sky130_fd_pr__pfet_01v8_hvt ad=1.0444e+12p pd=1.028e+07u as=1.664e+11p ps=1.8e+06u w=640000u l=150000u
X1 a_n10779_472# a_n10903_655# a_n11165_605# VNB sky130_fd_pr__nfet_01v8 ad=2.3425e+11p pd=2.17e+06u as=2.384e+11p ps=2.18e+06u w=420000u l=150000u
X2 a_n11345_427# a_n11165_605# VPB VPB sky130_fd_pr__pfet_01v8_hvt ad=2.7e+11p pd=2.54e+06u as=0p ps=0u w=1e+06u l=150000u
X3 a_n10945_819# a_n11345_427# VPB VPB sky130_fd_pr__pfet_01v8_hvt ad=8.82e+10p pd=1.26e+06u as=0p ps=0u w=420000u l=150000u
X4 a_n11019_453# a_n11345_427# VNB VNB sky130_fd_pr__nfet_01v8 ad=1.3425e+11p pd=1.49e+06u as=6.7175e+11p ps=6.86e+06u w=420000u l=150000u
X5 VNB a_n11513_605# GCLK VNB sky130_fd_pr__nfet_01v8 ad=0p pd=0u as=1.69e+11p ps=1.82e+06u w=650000u l=150000u
X6 VNB a_n11165_605# a_n11345_427# VNB sky130_fd_pr__nfet_01v8 ad=0p pd=0u as=1.69e+11p ps=1.82e+06u w=650000u l=150000u
X7 a_n11513_605# CLK VPB VPB sky130_fd_pr__pfet_01v8_hvt ad=4.064e+11p pd=2.55e+06u as=0p ps=0u w=640000u l=150000u
X8 a_n11387_453# CLK VNB VNB sky130_fd_pr__nfet_01v8 ad=8.82e+10p pd=1.26e+06u as=0p ps=0u w=420000u l=150000u
X9 a_n10903_655# CLK VPB VPB sky130_fd_pr__pfet_01v8_hvt ad=1.664e+11p pd=1.8e+06u as=0p ps=0u w=640000u l=150000u